*SPEF "IEEE 1481-1998"
*DESIGN "sync_fifo"
*DATE "Sun Dec  8 16:43:30 2024"
*VENDOR "Cadence Design Systems, Inc."
*PROGRAM "Innovus"
*VERSION "18.10-p002_1"
*DESIGN_FLOW "PIN_CAP NONE" "NAME_SCOPE LOCAL"
*DIVIDER /
*DELIMITER :
*BUS_DELIMITER []
*T_UNIT 1 NS
*C_UNIT 1 PF
*R_UNIT 1 OHM
*L_UNIT 1 HENRY

// MMMC spef file for corner 'rc_cworst'

*NAME_MAP

*1 FE_OFN1_n_357
*2 FE_OFN0_n_57
*3 data[31]
*4 data[30]
*5 data[29]
*6 data[28]
*7 data[27]
*8 data[26]
*9 data[25]
*10 data[24]
*11 data[23]
*12 data[22]
*13 data[21]
*14 data[20]
*15 data[19]
*16 data[18]
*17 data[17]
*18 data[16]
*19 data[15]
*20 data[14]
*21 data[13]
*22 data[12]
*23 data[11]
*24 data[10]
*25 data[9]
*26 data[8]
*27 data[7]
*28 data[6]
*29 data[5]
*30 data[4]
*31 data[3]
*32 data[2]
*33 data[1]
*34 data[0]
*35 wrreq
*36 rdreq
*37 clock
*38 aclr
*39 q[31]
*40 q[30]
*41 q[29]
*42 q[28]
*43 q[27]
*44 q[26]
*45 q[25]
*46 q[24]
*47 q[23]
*48 q[22]
*49 q[21]
*50 q[20]
*51 q[19]
*52 q[18]
*53 q[17]
*54 q[16]
*55 q[15]
*56 q[14]
*57 q[13]
*58 q[12]
*59 q[11]
*60 q[10]
*61 q[9]
*62 q[8]
*63 q[7]
*64 q[6]
*65 q[5]
*66 q[4]
*67 q[3]
*68 q[2]
*69 q[1]
*70 q[0]
*71 full
*72 empty
*73 almost_full
*74 usedw[1]
*75 usedw[0]
*76 ram\[4\][31]
*77 ram\[4\][30]
*78 ram\[4\][29]
*79 ram\[4\][28]
*80 ram\[4\][27]
*81 ram\[4\][26]
*82 ram\[4\][25]
*83 ram\[4\][24]
*84 ram\[4\][23]
*85 ram\[4\][22]
*86 ram\[4\][21]
*87 ram\[4\][20]
*88 ram\[4\][19]
*89 ram\[4\][18]
*90 ram\[4\][17]
*91 ram\[4\][16]
*92 ram\[4\][15]
*93 ram\[4\][14]
*94 ram\[4\][13]
*95 ram\[4\][12]
*96 ram\[4\][11]
*97 ram\[4\][10]
*98 ram\[4\][9]
*99 ram\[4\][8]
*100 ram\[4\][7]
*101 ram\[4\][6]
*102 ram\[4\][5]
*103 ram\[4\][4]
*104 ram\[4\][3]
*105 ram\[4\][2]
*106 ram\[4\][1]
*107 ram\[4\][0]
*108 ram\[0\][31]
*109 ram\[0\][30]
*110 ram\[0\][29]
*111 ram\[0\][28]
*112 ram\[0\][27]
*113 ram\[0\][26]
*114 ram\[0\][25]
*115 ram\[0\][24]
*116 ram\[0\][23]
*117 ram\[0\][22]
*118 ram\[0\][21]
*119 ram\[0\][20]
*120 ram\[0\][19]
*121 ram\[0\][18]
*122 ram\[0\][17]
*123 ram\[0\][16]
*124 ram\[0\][15]
*125 ram\[0\][14]
*126 ram\[0\][13]
*127 ram\[0\][12]
*128 ram\[0\][11]
*129 ram\[0\][10]
*130 ram\[0\][9]
*131 ram\[0\][8]
*132 ram\[0\][7]
*133 ram\[0\][6]
*134 ram\[0\][5]
*135 ram\[0\][4]
*136 ram\[0\][3]
*137 ram\[0\][2]
*138 ram\[0\][1]
*139 ram\[0\][0]
*140 ram\[2\][31]
*141 ram\[2\][30]
*142 ram\[2\][29]
*143 ram\[2\][28]
*144 ram\[2\][27]
*145 ram\[2\][26]
*146 ram\[2\][25]
*147 ram\[2\][24]
*148 ram\[2\][23]
*149 ram\[2\][22]
*150 ram\[2\][21]
*151 ram\[2\][20]
*152 ram\[2\][19]
*153 ram\[2\][18]
*154 ram\[2\][17]
*155 ram\[2\][16]
*156 ram\[2\][15]
*157 ram\[2\][14]
*158 ram\[2\][13]
*159 ram\[2\][12]
*160 ram\[2\][11]
*161 ram\[2\][10]
*162 ram\[2\][9]
*163 ram\[2\][8]
*164 ram\[2\][7]
*165 ram\[2\][6]
*166 ram\[2\][5]
*167 ram\[2\][4]
*168 ram\[2\][3]
*169 ram\[2\][2]
*170 ram\[2\][1]
*171 ram\[2\][0]
*172 ram\[7\][31]
*173 ram\[7\][30]
*174 ram\[7\][29]
*175 ram\[7\][28]
*176 ram\[7\][27]
*177 ram\[7\][26]
*178 ram\[7\][25]
*179 ram\[7\][24]
*180 ram\[7\][23]
*181 ram\[7\][22]
*182 ram\[7\][21]
*183 ram\[7\][20]
*184 ram\[7\][19]
*185 ram\[7\][18]
*186 ram\[7\][17]
*187 ram\[7\][16]
*188 ram\[7\][15]
*189 ram\[7\][14]
*190 ram\[7\][13]
*191 ram\[7\][12]
*192 ram\[7\][11]
*193 ram\[7\][10]
*194 ram\[7\][9]
*195 ram\[7\][8]
*196 ram\[7\][7]
*197 ram\[7\][6]
*198 ram\[7\][5]
*199 ram\[7\][4]
*200 ram\[7\][3]
*201 ram\[7\][2]
*202 ram\[7\][1]
*203 ram\[7\][0]
*204 ram\[1\][31]
*205 ram\[1\][30]
*206 ram\[1\][29]
*207 ram\[1\][28]
*208 ram\[1\][27]
*209 ram\[1\][26]
*210 ram\[1\][25]
*211 ram\[1\][24]
*212 ram\[1\][23]
*213 ram\[1\][22]
*214 ram\[1\][21]
*215 ram\[1\][20]
*216 ram\[1\][19]
*217 ram\[1\][18]
*218 ram\[1\][17]
*219 ram\[1\][16]
*220 ram\[1\][15]
*221 ram\[1\][14]
*222 ram\[1\][13]
*223 ram\[1\][12]
*224 ram\[1\][11]
*225 ram\[1\][10]
*226 ram\[1\][9]
*227 ram\[1\][8]
*228 ram\[1\][7]
*229 ram\[1\][6]
*230 ram\[1\][5]
*231 ram\[1\][4]
*232 ram\[1\][3]
*233 ram\[1\][2]
*234 ram\[1\][1]
*235 ram\[1\][0]
*236 ram\[5\][31]
*237 ram\[5\][30]
*238 ram\[5\][29]
*239 ram\[5\][28]
*240 ram\[5\][27]
*241 ram\[5\][26]
*242 ram\[5\][25]
*243 ram\[5\][24]
*244 ram\[5\][23]
*245 ram\[5\][22]
*246 ram\[5\][21]
*247 ram\[5\][20]
*248 ram\[5\][19]
*249 ram\[5\][18]
*250 ram\[5\][17]
*251 ram\[5\][16]
*252 ram\[5\][15]
*253 ram\[5\][14]
*254 ram\[5\][13]
*255 ram\[5\][12]
*256 ram\[5\][11]
*257 ram\[5\][10]
*258 ram\[5\][9]
*259 ram\[5\][8]
*260 ram\[5\][7]
*261 ram\[5\][6]
*262 ram\[5\][5]
*263 ram\[5\][4]
*264 ram\[5\][3]
*265 ram\[5\][2]
*266 ram\[5\][1]
*267 ram\[5\][0]
*268 ram\[3\][31]
*269 ram\[3\][30]
*270 ram\[3\][29]
*271 ram\[3\][28]
*272 ram\[3\][27]
*273 ram\[3\][26]
*274 ram\[3\][25]
*275 ram\[3\][24]
*276 ram\[3\][23]
*277 ram\[3\][22]
*278 ram\[3\][21]
*279 ram\[3\][20]
*280 ram\[3\][19]
*281 ram\[3\][18]
*282 ram\[3\][17]
*283 ram\[3\][16]
*284 ram\[3\][15]
*285 ram\[3\][14]
*286 ram\[3\][13]
*287 ram\[3\][12]
*288 ram\[3\][11]
*289 ram\[3\][10]
*290 ram\[3\][9]
*291 ram\[3\][8]
*292 ram\[3\][7]
*293 ram\[3\][6]
*294 ram\[3\][5]
*295 ram\[3\][4]
*296 ram\[3\][3]
*297 ram\[3\][2]
*298 ram\[3\][1]
*299 ram\[3\][0]
*300 ram\[6\][31]
*301 ram\[6\][30]
*302 ram\[6\][29]
*303 ram\[6\][28]
*304 ram\[6\][27]
*305 ram\[6\][26]
*306 ram\[6\][25]
*307 ram\[6\][24]
*308 ram\[6\][23]
*309 ram\[6\][22]
*310 ram\[6\][21]
*311 ram\[6\][20]
*312 ram\[6\][19]
*313 ram\[6\][18]
*314 ram\[6\][17]
*315 ram\[6\][16]
*316 ram\[6\][15]
*317 ram\[6\][14]
*318 ram\[6\][13]
*319 ram\[6\][12]
*320 ram\[6\][11]
*321 ram\[6\][10]
*322 ram\[6\][9]
*323 ram\[6\][8]
*324 ram\[6\][7]
*325 ram\[6\][6]
*326 ram\[6\][5]
*327 ram\[6\][4]
*328 ram\[6\][3]
*329 ram\[6\][2]
*330 ram\[6\][1]
*331 ram\[6\][0]
*332 rd_addr[2]
*333 rd_addr[1]
*334 rd_addr[0]
*335 wr_addr[2]
*336 wr_addr[1]
*337 wr_addr[0]
*338 UNCONNECTED
*339 n_0
*340 n_2
*341 n_3
*342 n_4
*343 n_5
*344 n_6
*345 n_7
*346 n_8
*347 n_9
*348 n_10
*349 n_11
*350 n_12
*351 n_15
*352 n_16
*353 n_17
*354 n_18
*355 n_19
*356 n_21
*357 n_23
*358 n_24
*359 n_25
*360 n_26
*361 n_27
*362 n_28
*363 n_29
*364 n_30
*365 n_31
*366 n_32
*367 n_33
*368 n_34
*369 n_35
*370 n_36
*371 n_37
*372 n_38
*373 n_39
*374 n_40
*375 n_41
*376 n_42
*377 n_43
*378 n_44
*379 n_45
*380 n_46
*381 n_47
*382 n_48
*383 n_49
*384 n_50
*385 n_51
*386 n_52
*387 n_53
*388 n_54
*389 n_55
*390 n_56
*391 n_57
*392 n_58
*393 n_59
*394 n_60
*395 n_61
*396 n_62
*397 n_63
*398 n_64
*399 n_65
*400 n_66
*401 n_67
*402 n_68
*403 n_69
*404 n_70
*405 n_71
*406 n_72
*407 n_73
*408 n_74
*409 n_75
*410 n_76
*411 n_77
*412 n_78
*413 n_79
*414 n_80
*415 n_81
*416 n_82
*417 n_83
*418 n_84
*419 n_85
*420 n_86
*421 n_87
*422 n_88
*423 n_89
*424 n_90
*425 n_91
*426 n_92
*427 n_93
*428 n_94
*429 n_95
*430 n_96
*431 n_97
*432 n_98
*433 n_99
*434 n_100
*435 n_101
*436 n_102
*437 n_103
*438 n_105
*439 n_106
*440 n_107
*441 n_108
*442 n_109
*443 n_110
*444 n_111
*445 n_112
*446 n_113
*447 n_114
*448 n_115
*449 n_116
*450 n_117
*451 n_118
*452 n_119
*453 n_120
*454 n_121
*455 n_122
*456 n_123
*457 n_124
*458 n_125
*459 n_126
*460 n_127
*461 n_128
*462 n_129
*463 n_131
*464 n_132
*465 n_133
*466 n_134
*467 n_135
*468 n_136
*469 n_137
*470 n_138
*471 n_139
*472 n_140
*473 n_141
*474 n_142
*475 n_143
*476 n_144
*477 n_145
*478 n_146
*479 n_147
*480 n_148
*481 n_149
*482 n_150
*483 n_151
*484 n_152
*485 n_153
*486 n_154
*487 n_155
*488 n_156
*489 n_157
*490 n_158
*491 n_159
*492 n_160
*493 n_161
*494 n_162
*495 n_163
*496 n_164
*497 n_165
*498 n_166
*499 n_167
*500 n_168
*501 n_169
*502 n_170
*503 n_171
*504 n_172
*505 n_173
*506 n_174
*507 n_175
*508 n_176
*509 n_177
*510 n_178
*511 n_179
*512 n_180
*513 n_181
*514 n_182
*515 n_183
*516 n_184
*517 n_185
*518 n_186
*519 n_187
*520 n_188
*521 n_189
*522 n_190
*523 n_191
*524 n_192
*525 n_193
*526 n_194
*527 n_195
*528 n_196
*529 n_197
*530 n_198
*531 n_199
*532 n_200
*533 n_201
*534 n_202
*535 n_203
*536 n_204
*537 n_205
*538 n_206
*539 n_207
*540 n_208
*541 n_209
*542 n_210
*543 n_211
*544 n_212
*545 n_213
*546 n_214
*547 n_215
*548 n_216
*549 n_217
*550 n_218
*551 n_219
*552 n_220
*553 n_221
*554 n_222
*555 n_223
*556 n_224
*557 n_225
*558 n_226
*559 n_227
*560 n_228
*561 n_229
*562 n_230
*563 n_231
*564 n_232
*565 n_233
*566 n_234
*567 n_235
*568 n_236
*569 n_237
*570 n_238
*571 n_239
*572 n_240
*573 n_241
*574 n_242
*575 n_243
*576 n_244
*577 n_245
*578 n_246
*579 n_247
*580 n_248
*581 n_249
*582 n_250
*583 n_251
*584 n_252
*585 n_253
*586 n_254
*587 n_255
*588 n_256
*589 n_257
*590 n_258
*591 n_259
*592 n_260
*593 n_261
*594 n_262
*595 n_263
*596 n_264
*597 n_265
*598 n_266
*599 n_267
*600 n_268
*601 n_269
*602 n_270
*603 n_271
*604 n_272
*605 n_273
*606 n_274
*607 n_275
*608 n_276
*609 n_277
*610 n_278
*611 n_279
*612 n_280
*613 n_281
*614 n_282
*615 n_283
*616 n_284
*617 n_285
*618 n_286
*619 n_287
*620 n_288
*621 n_289
*622 n_290
*623 n_291
*624 n_292
*625 n_293
*626 n_294
*627 n_295
*628 n_296
*629 n_297
*630 n_298
*631 n_299
*632 n_300
*633 n_301
*634 n_302
*635 n_303
*636 n_304
*637 n_305
*638 n_306
*639 n_307
*640 n_308
*641 n_309
*642 n_310
*643 n_311
*644 n_312
*645 n_313
*646 n_314
*647 n_315
*648 n_316
*649 n_317
*650 n_318
*651 n_319
*652 n_320
*653 n_321
*654 n_322
*655 n_323
*656 n_324
*657 n_325
*658 n_326
*659 n_327
*660 n_328
*661 n_329
*662 n_330
*663 n_331
*664 n_332
*665 n_333
*666 n_334
*667 n_335
*668 n_336
*669 n_337
*670 n_338
*671 n_339
*672 n_340
*673 n_341
*674 n_342
*675 n_343
*676 n_344
*677 n_345
*678 n_346
*679 n_347
*680 n_348
*681 n_349
*682 n_350
*683 n_351
*684 n_352
*685 n_353
*686 n_354
*687 n_355
*688 n_356
*689 n_357
*690 n_358
*691 n_359
*692 n_360
*693 n_361
*694 n_362
*695 n_363
*696 n_364
*697 n_365
*698 n_366
*699 n_367
*700 n_369
*701 n_371
*702 n_373
*703 n_375
*704 n_377
*705 n_379
*706 n_381
*707 n_383
*708 n_385
*709 n_387
*710 n_389
*711 n_391
*712 n_393
*713 n_395
*714 n_397
*715 n_399
*716 n_401
*717 n_403
*718 n_405
*719 n_407
*720 n_409
*721 n_411
*722 n_413
*723 n_415
*724 n_417
*725 n_419
*726 n_421
*727 n_423
*728 n_425
*729 n_427
*730 n_429
*731 n_431
*732 n_433
*733 n_434
*734 n_435
*735 n_436
*736 n_437
*737 n_438
*738 n_439
*739 n_440
*740 n_441
*741 n_442
*742 n_443
*743 n_444
*744 n_445
*745 n_446
*746 n_447
*747 n_448
*748 n_449
*749 n_450
*750 n_451
*751 n_452
*752 n_453
*753 n_454
*754 n_455
*755 n_456
*756 n_457
*757 n_458
*758 n_459
*759 n_460
*760 n_461
*761 n_462
*762 n_463
*763 n_464
*764 n_465
*765 n_466
*766 n_467
*767 n_468
*768 n_469
*769 n_470
*770 n_471
*771 n_472
*772 n_473
*773 n_474
*774 n_475
*775 n_476
*776 n_477
*777 n_478
*778 n_479
*779 n_480
*780 n_481
*781 n_482
*782 n_483
*783 n_484
*784 n_485
*785 n_486
*786 n_487
*787 n_488
*788 n_489
*789 n_490
*790 n_491
*791 n_492
*792 n_493
*793 n_494
*794 n_495
*795 n_496
*796 n_497
*797 n_498
*798 n_499
*799 n_500
*800 n_501
*801 n_506
*802 n_507
*803 n_508
*804 n_509
*805 usedw[2]
*806 FE_OFC1_n_357
*807 FE_OFC0_n_57
*808 q_reg\[24\]
*809 q_reg\[1\]
*810 q_reg\[6\]
*811 q_reg\[16\]
*812 q_reg\[17\]
*813 q_reg\[7\]
*814 q_reg\[18\]
*815 q_reg\[19\]
*816 q_reg\[2\]
*817 q_reg\[8\]
*818 q_reg\[20\]
*819 q_reg\[21\]
*820 q_reg\[22\]
*821 q_reg\[9\]
*822 q_reg\[23\]
*823 q_reg\[10\]
*824 q_reg\[15\]
*825 q_reg\[11\]
*826 q_reg\[25\]
*827 q_reg\[26\]
*828 q_reg\[27\]
*829 q_reg\[12\]
*830 q_reg\[28\]
*831 q_reg\[29\]
*832 q_reg\[3\]
*833 q_reg\[13\]
*834 q_reg\[30\]
*835 q_reg\[31\]
*836 q_reg\[4\]
*837 q_reg\[14\]
*838 q_reg\[5\]
*839 q_reg\[0\]
*840 g7825__8780
*841 g7841__4296
*842 g7842__3772
*843 g7818__1474
*844 g7843__4547
*845 g7826__9682
*846 g7844__2683
*847 g7827__1309
*848 g7845__6877
*849 g7846__2900
*850 g7847__2391
*851 g7828__7675
*852 g7848__7118
*853 g7819__8757
*854 g7829__1786
*855 g7830__5953
*856 g7817__5703
*857 g7831__7114
*858 g7820__5266
*859 g7832__2250
*860 g7833__6083
*861 g7834__2703
*862 g7821__5795
*863 g7835__7344
*864 g7822__1840
*865 g7836__5019
*866 g7823__1857
*867 g7837__9906
*868 g7838__8780
*869 g7839__4296
*870 g7840__3772
*871 g7824__1474
*872 ram_reg\[4\]\[5\]
*873 ram_reg\[0\]\[25\]
*874 ram_reg\[0\]\[26\]
*875 ram_reg\[0\]\[27\]
*876 ram_reg\[0\]\[28\]
*877 ram_reg\[0\]\[23\]
*878 ram_reg\[0\]\[22\]
*879 ram_reg\[0\]\[29\]
*880 ram_reg\[0\]\[30\]
*881 ram_reg\[0\]\[31\]
*882 ram_reg\[4\]\[0\]
*883 ram_reg\[4\]\[1\]
*884 ram_reg\[4\]\[2\]
*885 ram_reg\[4\]\[3\]
*886 ram_reg\[4\]\[4\]
*887 ram_reg\[0\]\[24\]
*888 ram_reg\[0\]\[21\]
*889 ram_reg\[4\]\[6\]
*890 ram_reg\[4\]\[7\]
*891 ram_reg\[4\]\[8\]
*892 ram_reg\[4\]\[9\]
*893 ram_reg\[4\]\[10\]
*894 ram_reg\[4\]\[11\]
*895 ram_reg\[4\]\[12\]
*896 ram_reg\[4\]\[13\]
*897 ram_reg\[4\]\[14\]
*898 ram_reg\[4\]\[15\]
*899 ram_reg\[4\]\[16\]
*900 ram_reg\[4\]\[17\]
*901 ram_reg\[4\]\[18\]
*902 ram_reg\[4\]\[19\]
*903 ram_reg\[4\]\[20\]
*904 ram_reg\[0\]\[5\]
*905 ram_reg\[4\]\[22\]
*906 ram_reg\[4\]\[23\]
*907 ram_reg\[4\]\[24\]
*908 ram_reg\[4\]\[25\]
*909 ram_reg\[4\]\[26\]
*910 ram_reg\[4\]\[27\]
*911 ram_reg\[4\]\[28\]
*912 ram_reg\[4\]\[29\]
*913 ram_reg\[4\]\[30\]
*914 ram_reg\[4\]\[31\]
*915 ram_reg\[0\]\[0\]
*916 ram_reg\[0\]\[1\]
*917 ram_reg\[0\]\[2\]
*918 ram_reg\[0\]\[3\]
*919 ram_reg\[0\]\[4\]
*920 ram_reg\[4\]\[21\]
*921 ram_reg\[0\]\[6\]
*922 ram_reg\[0\]\[7\]
*923 ram_reg\[0\]\[8\]
*924 ram_reg\[0\]\[9\]
*925 ram_reg\[0\]\[10\]
*926 ram_reg\[0\]\[11\]
*927 ram_reg\[0\]\[12\]
*928 ram_reg\[0\]\[13\]
*929 ram_reg\[0\]\[15\]
*930 ram_reg\[0\]\[14\]
*931 ram_reg\[0\]\[16\]
*932 ram_reg\[0\]\[17\]
*933 ram_reg\[0\]\[18\]
*934 ram_reg\[0\]\[19\]
*935 ram_reg\[0\]\[20\]
*936 usedw_reg\[1\]
*937 ram_reg\[2\]\[23\]
*938 ram_reg\[2\]\[6\]
*939 ram_reg\[7\]\[6\]
*940 ram_reg\[1\]\[7\]
*941 ram_reg\[1\]\[8\]
*942 ram_reg\[2\]\[2\]
*943 ram_reg\[1\]\[9\]
*944 ram_reg\[1\]\[10\]
*945 ram_reg\[1\]\[11\]
*946 ram_reg\[1\]\[30\]
*947 ram_reg\[1\]\[12\]
*948 ram_reg\[1\]\[13\]
*949 ram_reg\[1\]\[14\]
*950 ram_reg\[1\]\[15\]
*951 ram_reg\[1\]\[16\]
*952 ram_reg\[1\]\[17\]
*953 ram_reg\[1\]\[18\]
*954 ram_reg\[1\]\[19\]
*955 ram_reg\[1\]\[20\]
*956 ram_reg\[1\]\[21\]
*957 ram_reg\[1\]\[22\]
*958 ram_reg\[1\]\[23\]
*959 ram_reg\[1\]\[24\]
*960 ram_reg\[1\]\[25\]
*961 ram_reg\[1\]\[26\]
*962 ram_reg\[1\]\[27\]
*963 ram_reg\[1\]\[28\]
*964 ram_reg\[1\]\[29\]
*965 ram_reg\[1\]\[31\]
*966 ram_reg\[2\]\[0\]
*967 ram_reg\[2\]\[1\]
*968 ram_reg\[2\]\[3\]
*969 ram_reg\[2\]\[4\]
*970 ram_reg\[1\]\[6\]
*971 ram_reg\[2\]\[5\]
*972 ram_reg\[2\]\[7\]
*973 ram_reg\[2\]\[8\]
*974 ram_reg\[2\]\[9\]
*975 ram_reg\[2\]\[10\]
*976 ram_reg\[2\]\[11\]
*977 ram_reg\[2\]\[12\]
*978 ram_reg\[2\]\[13\]
*979 ram_reg\[2\]\[15\]
*980 ram_reg\[2\]\[16\]
*981 ram_reg\[2\]\[17\]
*982 ram_reg\[2\]\[19\]
*983 ram_reg\[2\]\[20\]
*984 ram_reg\[2\]\[21\]
*985 ram_reg\[5\]\[30\]
*986 ram_reg\[2\]\[24\]
*987 ram_reg\[2\]\[25\]
*988 ram_reg\[2\]\[26\]
*989 ram_reg\[2\]\[27\]
*990 ram_reg\[2\]\[28\]
*991 ram_reg\[2\]\[29\]
*992 ram_reg\[2\]\[31\]
*993 ram_reg\[3\]\[0\]
*994 ram_reg\[3\]\[1\]
*995 ram_reg\[3\]\[3\]
*996 ram_reg\[3\]\[4\]
*997 ram_reg\[3\]\[5\]
*998 ram_reg\[3\]\[7\]
*999 ram_reg\[1\]\[0\]
*1000 ram_reg\[3\]\[9\]
*1001 ram_reg\[3\]\[10\]
*1002 ram_reg\[3\]\[11\]
*1003 ram_reg\[3\]\[12\]
*1004 ram_reg\[3\]\[13\]
*1005 ram_reg\[3\]\[15\]
*1006 ram_reg\[3\]\[16\]
*1007 ram_reg\[3\]\[17\]
*1008 ram_reg\[3\]\[19\]
*1009 ram_reg\[3\]\[20\]
*1010 ram_reg\[3\]\[21\]
*1011 ram_reg\[3\]\[23\]
*1012 ram_reg\[3\]\[24\]
*1013 ram_reg\[3\]\[25\]
*1014 ram_reg\[3\]\[26\]
*1015 ram_reg\[3\]\[27\]
*1016 ram_reg\[3\]\[28\]
*1017 ram_reg\[3\]\[29\]
*1018 ram_reg\[3\]\[31\]
*1019 ram_reg\[5\]\[0\]
*1020 ram_reg\[5\]\[1\]
*1021 ram_reg\[5\]\[3\]
*1022 ram_reg\[5\]\[4\]
*1023 ram_reg\[5\]\[5\]
*1024 ram_reg\[5\]\[7\]
*1025 ram_reg\[5\]\[8\]
*1026 ram_reg\[5\]\[9\]
*1027 ram_reg\[5\]\[10\]
*1028 ram_reg\[5\]\[11\]
*1029 ram_reg\[5\]\[12\]
*1030 ram_reg\[5\]\[13\]
*1031 ram_reg\[5\]\[15\]
*1032 ram_reg\[5\]\[16\]
*1033 g7849__4547
*1034 ram_reg\[5\]\[19\]
*1035 ram_reg\[5\]\[20\]
*1036 ram_reg\[5\]\[21\]
*1037 ram_reg\[5\]\[23\]
*1038 ram_reg\[5\]\[24\]
*1039 ram_reg\[5\]\[25\]
*1040 ram_reg\[5\]\[26\]
*1041 ram_reg\[5\]\[27\]
*1042 ram_reg\[5\]\[28\]
*1043 ram_reg\[5\]\[29\]
*1044 ram_reg\[5\]\[31\]
*1045 ram_reg\[6\]\[0\]
*1046 ram_reg\[6\]\[1\]
*1047 ram_reg\[6\]\[3\]
*1048 ram_reg\[6\]\[4\]
*1049 ram_reg\[6\]\[5\]
*1050 ram_reg\[6\]\[7\]
*1051 ram_reg\[6\]\[8\]
*1052 ram_reg\[6\]\[9\]
*1053 ram_reg\[6\]\[10\]
*1054 ram_reg\[6\]\[11\]
*1055 ram_reg\[6\]\[12\]
*1056 ram_reg\[6\]\[13\]
*1057 ram_reg\[6\]\[15\]
*1058 ram_reg\[6\]\[18\]
*1059 ram_reg\[6\]\[19\]
*1060 ram_reg\[6\]\[20\]
*1061 ram_reg\[6\]\[21\]
*1062 ram_reg\[6\]\[23\]
*1063 ram_reg\[6\]\[24\]
*1064 ram_reg\[6\]\[25\]
*1065 ram_reg\[6\]\[26\]
*1066 ram_reg\[6\]\[27\]
*1067 ram_reg\[6\]\[28\]
*1068 ram_reg\[6\]\[29\]
*1069 ram_reg\[6\]\[31\]
*1070 ram_reg\[7\]\[0\]
*1071 ram_reg\[7\]\[1\]
*1072 ram_reg\[7\]\[3\]
*1073 ram_reg\[7\]\[4\]
*1074 ram_reg\[7\]\[5\]
*1075 ram_reg\[7\]\[7\]
*1076 ram_reg\[7\]\[8\]
*1077 ram_reg\[7\]\[9\]
*1078 ram_reg\[7\]\[10\]
*1079 ram_reg\[7\]\[11\]
*1080 ram_reg\[7\]\[12\]
*1081 ram_reg\[7\]\[13\]
*1082 ram_reg\[7\]\[15\]
*1083 ram_reg\[7\]\[16\]
*1084 ram_reg\[7\]\[17\]
*1085 ram_reg\[7\]\[19\]
*1086 ram_reg\[7\]\[20\]
*1087 ram_reg\[7\]\[21\]
*1088 ram_reg\[7\]\[23\]
*1089 ram_reg\[7\]\[24\]
*1090 ram_reg\[7\]\[25\]
*1091 ram_reg\[7\]\[26\]
*1092 ram_reg\[7\]\[27\]
*1093 ram_reg\[7\]\[28\]
*1094 ram_reg\[7\]\[29\]
*1095 ram_reg\[7\]\[31\]
*1096 ram_reg\[6\]\[16\]
*1097 ram_reg\[6\]\[17\]
*1098 ram_reg\[6\]\[6\]
*1099 ram_reg\[6\]\[2\]
*1100 ram_reg\[7\]\[2\]
*1101 ram_reg\[5\]\[22\]
*1102 ram_reg\[6\]\[30\]
*1103 ram_reg\[5\]\[17\]
*1104 ram_reg\[5\]\[18\]
*1105 ram_reg\[6\]\[22\]
*1106 ram_reg\[5\]\[14\]
*1107 ram_reg\[7\]\[14\]
*1108 ram_reg\[7\]\[30\]
*1109 ram_reg\[7\]\[18\]
*1110 ram_reg\[7\]\[22\]
*1111 ram_reg\[6\]\[14\]
*1112 ram_reg\[3\]\[6\]
*1113 ram_reg\[5\]\[6\]
*1114 ram_reg\[5\]\[2\]
*1115 ram_reg\[3\]\[30\]
*1116 ram_reg\[3\]\[22\]
*1117 ram_reg\[3\]\[18\]
*1118 ram_reg\[3\]\[14\]
*1119 ram_reg\[3\]\[2\]
*1120 ram_reg\[2\]\[30\]
*1121 ram_reg\[2\]\[14\]
*1122 ram_reg\[2\]\[22\]
*1123 ram_reg\[2\]\[18\]
*1124 ram_reg\[3\]\[8\]
*1125 ram_reg\[1\]\[1\]
*1126 ram_reg\[1\]\[2\]
*1127 ram_reg\[1\]\[3\]
*1128 ram_reg\[1\]\[4\]
*1129 ram_reg\[1\]\[5\]
*1130 g8111__9682
*1131 g8096__2683
*1132 g8097__1309
*1133 g8098__6877
*1134 g8099__2900
*1135 g8100__2391
*1136 g8101__7675
*1137 g8102__7118
*1138 g8103__8757
*1139 g8104__1786
*1140 g8105__5953
*1141 g8106__5703
*1142 g8107__7114
*1143 g8108__5266
*1144 g8109__2250
*1145 g8110__6083
*1146 g8095__2703
*1147 g8112__5795
*1148 g8113__7344
*1149 g8114__1840
*1150 g8115__5019
*1151 g8116__1857
*1152 g8117__9906
*1153 g8118__8780
*1154 g8119__4296
*1155 g8120__3772
*1156 g8121__1474
*1157 g8122__4547
*1158 g8123__9682
*1159 g8124__2683
*1160 g8125__1309
*1161 g8126__6877
*1162 g8127__2900
*1163 rd_addr_reg\[2\]
*1164 g8128__2391
*1165 g8129__7675
*1166 g8130__7118
*1167 g8131__8757
*1168 g8132__1786
*1169 g8133__5953
*1170 g8134__5703
*1171 g8135__7114
*1172 g8136__5266
*1173 g8137__2250
*1174 g8138__6083
*1175 g8139__2703
*1176 g8140__5795
*1177 g8141__7344
*1178 g8142__1840
*1179 g8144__5019
*1180 g8143__1857
*1181 g8145__9906
*1182 g8146__8780
*1183 g8147__4296
*1184 g8148__3772
*1185 g8149__1474
*1186 g8150__4547
*1187 g8151__9682
*1188 g8152__2683
*1189 g8153__1309
*1190 g8154__6877
*1191 g8155__2900
*1192 g8156__2391
*1193 g8157__7675
*1194 g8061__7118
*1195 g8062__8757
*1196 usedw_reg\[0\]
*1197 wr_addr_reg\[2\]
*1198 g8305__1786
*1199 g8260__5953
*1200 g8068__5703
*1201 g8261__7114
*1202 g8258__5266
*1203 g8257__2250
*1204 g8069__6083
*1205 g8264__2703
*1206 g8267__5795
*1207 g8071__7344
*1208 g8269__1840
*1209 g8272__5019
*1210 g8073__1857
*1211 g8352__9906
*1212 g8274__8780
*1213 g8275__4296
*1214 g8276__3772
*1215 g8074__1474
*1216 g8277__4547
*1217 g8278__9682
*1218 g8075__2683
*1219 g8279__1309
*1220 g8280__6877
*1221 g8076__2900
*1222 g8281__2391
*1223 g8282__7675
*1224 g8283__7118
*1225 g8284__8757
*1226 g8077__1786
*1227 g8285__5953
*1228 g8286__5703
*1229 g8287__7114
*1230 g8078__5266
*1231 g8288__2250
*1232 g8289__6083
*1233 g8290__2703
*1234 g8079__5795
*1235 g8291__7344
*1236 g8292__1840
*1237 g8080__5019
*1238 g8293__1857
*1239 g8294__9906
*1240 g8295__8780
*1241 g8081__4296
*1242 g8296__3772
*1243 g8297__1474
*1244 g8298__4547
*1245 g8082__9682
*1246 g8299__2683
*1247 g8300__1309
*1248 g8083__6877
*1249 g8301__2900
*1250 g8302__2391
*1251 g8303__7675
*1252 g8084__7118
*1253 g8304__8757
*1254 g8259__1786
*1255 g8306__5953
*1256 g8072__5703
*1257 g8085__7114
*1258 g8307__5266
*1259 g8308__2250
*1260 g8086__6083
*1261 g8309__2703
*1262 g8310__5795
*1263 g8311__7344
*1264 g8087__1840
*1265 g8312__5019
*1266 g8313__1857
*1267 g8314__9906
*1268 g8088__8780
*1269 g8315__4296
*1270 g8316__3772
*1271 g8089__1474
*1272 g8317__4547
*1273 g8318__9682
*1274 g8090__2683
*1275 g8322__1309
*1276 g8091__6877
*1277 g8323__2900
*1278 g8324__2391
*1279 g8092__7675
*1280 g8325__7118
*1281 g8326__8757
*1282 g8327__1786
*1283 g8271__5953
*1284 g8093__5703
*1285 g8328__7114
*1286 g8329__5266
*1287 g8330__2250
*1288 g8094__6083
*1289 g8331__2703
*1290 g8332__5795
*1291 g8333__7344
*1292 g8334__1840
*1293 g8335__5019
*1294 g8336__1857
*1295 g8337__9906
*1296 g8338__8780
*1297 g8339__4296
*1298 g8340__3772
*1299 g8341__1474
*1300 g8342__4547
*1301 g8343__9682
*1302 g8344__2683
*1303 g8345__1309
*1304 g8346__6877
*1305 g8347__2900
*1306 g8348__2391
*1307 g8349__7675
*1308 g8350__7118
*1309 g8351__8757
*1310 wr_addr_reg\[1\]
*1311 g8408__1786
*1312 g8354__5953
*1313 g8355__5703
*1314 g8356__7114
*1315 g8357__5266
*1316 g8358__2250
*1317 g8359__6083
*1318 g8360__2703
*1319 g8361__5795
*1320 g8362__7344
*1321 g8363__1840
*1322 g8364__5019
*1323 g8365__1857
*1324 g8268__9906
*1325 g8366__8780
*1326 g8367__4296
*1327 g8368__3772
*1328 g8369__1474
*1329 g8370__4547
*1330 g8371__9682
*1331 g8372__2683
*1332 g8373__1309
*1333 g8374__6877
*1334 g8375__2900
*1335 g8376__2391
*1336 g8377__7675
*1337 g8378__7118
*1338 g8379__8757
*1339 g8380__1786
*1340 g8381__5953
*1341 g8382__5703
*1342 g8383__7114
*1343 g8384__5266
*1344 g8385__2250
*1345 g8386__6083
*1346 g8387__2703
*1347 g8388__5795
*1348 g8389__7344
*1349 g8390__1840
*1350 g8391__5019
*1351 g8392__1857
*1352 g8393__9906
*1353 g8394__8780
*1354 g8395__4296
*1355 g8396__3772
*1356 g8397__1474
*1357 g8398__4547
*1358 g8399__9682
*1359 g8400__2683
*1360 g8401__1309
*1361 g8402__6877
*1362 g8403__2900
*1363 g8404__2391
*1364 g8405__7675
*1365 g8406__7118
*1366 g8407__8757
*1367 g8353__1786
*1368 g8409__5953
*1369 g8410__5703
*1370 g8411__7114
*1371 g8412__5266
*1372 g8413__2250
*1373 g8414__6083
*1374 g8415__2703
*1375 g8416__5795
*1376 g8417__7344
*1377 g8418__1840
*1378 g8419__5019
*1379 g8420__1857
*1380 g8421__9906
*1381 g8422__8780
*1382 g8423__4296
*1383 g8424__3772
*1384 g8425__1474
*1385 g8426__4547
*1386 g8427__9682
*1387 g8428__2683
*1388 g8429__1309
*1389 g8430__6877
*1390 g8431__2900
*1391 g8432__2391
*1392 g8433__7675
*1393 g8434__7118
*1394 g8270__8757
*1395 g8207__1786
*1396 g8241__5953
*1397 g8242__5703
*1398 g8243__7114
*1399 g8244__5266
*1400 g8245__2250
*1401 g8246__6083
*1402 g8063__2703
*1403 g8247__5795
*1404 g8248__7344
*1405 g8064__1840
*1406 g8249__5019
*1407 g8250__1857
*1408 g8262__9906
*1409 g8251__8780
*1410 g8273__4296
*1411 g8065__3772
*1412 g8252__1474
*1413 g8253__4547
*1414 g8266__9682
*1415 g8070__2683
*1416 g8254__1309
*1417 g8265__6877
*1418 g8066__2900
*1419 g8255__2391
*1420 g8263__7675
*1421 g8256__7118
*1422 g8067__8757
*1423 rd_addr_reg\[1\]
*1424 g8463__1786
*1425 g8439__5703
*1426 g8441__7114
*1427 g8442__5266
*1428 g8443__2250
*1429 g8444__6083
*1430 g8445__2703
*1431 g8446__5795
*1432 g8447__7344
*1433 g8448__1840
*1434 g8449__5019
*1435 g8450__1857
*1436 g8451__9906
*1437 g8452__8780
*1438 g8453__4296
*1439 g8454__3772
*1440 g8456__1474
*1441 g8457__4547
*1442 g8458__9682
*1443 g8459__2683
*1444 g8460__1309
*1445 g8461__6877
*1446 g8462__2900
*1447 g8158__2391
*1448 g8464__7118
*1449 g8465__8757
*1450 g8466__1786
*1451 g8467__5953
*1452 g8468__5703
*1453 g8469__7114
*1454 g8470__5266
*1455 g8473__2250
*1456 g8474__6083
*1457 g8475__2703
*1458 g8476__5795
*1459 g8477__7344
*1460 g8478__1840
*1461 g8479__5019
*1462 g8480__1857
*1463 g8481__9906
*1464 g8482__8780
*1465 g8483__4296
*1466 g8484__3772
*1467 g8485__1474
*1468 g8486__4547
*1469 g8487__9682
*1470 g8488__2683
*1471 g8489__1309
*1472 g8240__6877
*1473 g8491__2900
*1474 g8492__2391
*1475 g8493__7675
*1476 g8494__7118
*1477 g8495__8757
*1478 g8496__1786
*1479 g8497__5953
*1480 g8498__5703
*1481 g8499__7114
*1482 g8500__5266
*1483 g8501__2250
*1484 g8502__6083
*1485 g8503__2703
*1486 g8504__5795
*1487 g8505__7344
*1488 g8506__1840
*1489 g8507__5019
*1490 g8208__1857
*1491 g8209__9906
*1492 g8210__8780
*1493 g8211__4296
*1494 g8212__3772
*1495 g8213__1474
*1496 g8214__4547
*1497 g8215__9682
*1498 g8216__2683
*1499 g8217__1309
*1500 g8218__6877
*1501 g8219__2900
*1502 g8220__2391
*1503 g8221__7675
*1504 g8222__7118
*1505 g8223__8757
*1506 g8224__1786
*1507 g8225__5953
*1508 g8226__5703
*1509 g8227__7114
*1510 g8228__5266
*1511 g8229__2250
*1512 g8230__6083
*1513 g8231__2703
*1514 g8232__5795
*1515 g8233__7344
*1516 g8234__1840
*1517 g8235__5019
*1518 g8236__1857
*1519 g8237__9906
*1520 g8238__8780
*1521 g8239__4296
*1522 g8490__3772
*1523 g8440__1474
*1524 g8455__4547
*1525 rd_addr_reg\[0\]
*1526 g8472__9682
*1527 g8471__2683
*1528 g8437__1309
*1529 g8438__6877
*1530 wr_addr_reg\[0\]
*1531 g8511__2900
*1532 g8510__2391
*1533 g8518__7675
*1534 g8513__7118
*1535 g8512__8757
*1536 g8519__1786
*1537 g8522__7114
*1538 g8521__5266
*1539 g8517__2250
*1540 g8516__6083
*1541 g8530__2703
*1542 g8531__5795
*1543 g8525__7344
*1544 g8526__1840
*1545 g8523__5019
*1546 g8524__1857
*1547 g8527__9906
*1548 g8528__8780
*1549 g8532__4296
*1550 g8529__3772
*1551 g8520__1474
*1552 g8533__4547
*1553 g8538__9682
*1554 g8542__2683
*1555 g8537__1309
*1556 g8539__6877
*1557 g8534__2900
*1558 g8561
*1559 g8536__2391
*1560 g8541__7675
*1561 g8543__7118
*1562 g8540__8757
*1563 g8535__1786
*1564 g8560
*1565 g2
*1566 g3
*1567 g8878
*1568 g8879
*1569 usedw_reg\[2\]


*PORTS

*3 I *C 702 0
*4 I *C 757 1430
*5 I *C 689 1430
*6 I *C 789 1430
*7 I *C 1430 696
*8 I *C 676 1430
*9 I *C 731 1430
*10 I *C 788 1430
*11 I *C 724 0
*12 I *C 0 688
*13 I *C 676 1430
*14 I *C 805 1430
*15 I *C 1430 694
*16 I *C 705 1430
*17 I *C 1430 738
*18 I *C 661 1430
*19 I *C 674 1430
*20 I *C 661 1430
*21 I *C 784 1430
*22 I *C 718 1430
*23 I *C 1430 702
*24 I *C 749 1430
*25 I *C 677 1430
*26 I *C 0 716
*27 I *C 1430 685
*28 I *C 1430 756
*29 I *C 1430 721
*30 I *C 0 744
*31 I *C 743 1430
*32 I *C 693 1430
*33 I *C 0 701
*34 I *C 0 755
*35 I *C 684 1430
*36 I *C 1430 732
*37 I *C 726 1430
*38 I *C 0 692
*39 O *C 0 696
*40 O *C 754 1430
*41 O *C 676 1430
*42 O *C 791 1430
*43 O *C 1430 702
*44 O *C 664 1430
*45 O *C 732 1430
*46 O *C 784 1430
*47 O *C 726 0
*48 O *C 0 696
*49 O *C 672 1430
*50 O *C 809 1430
*51 O *C 1430 703
*52 O *C 0 735
*53 O *C 1430 731
*54 O *C 668 1430
*55 O *C 664 1430
*56 O *C 665 1430
*57 O *C 770 1430
*58 O *C 720 1430
*59 O *C 1430 695
*60 O *C 754 1430
*61 O *C 661 1430
*62 O *C 0 712
*63 O *C 1430 693
*64 O *C 1430 744
*65 O *C 1430 712
*66 O *C 0 735
*67 O *C 735 1430
*68 O *C 679 1430
*69 O *C 0 705
*70 O *C 0 746
*71 O *C 665 1430
*72 O *C 663 1430
*805 O *C 659 1430
*74 O *C 674 1430
*75 O *C 664 1430
*73 O *C 660 1430


*D_NET *1 0.109857

*CONN
*I *1415:F I *C 794 1186 *L 0.00381 *D AN222JIHDX0
*I *1257:F I *C 792 1195 *L 0.00381 *D AN222JIHDX0
*I *1226:F I *C 783 1195 *L 0.00381 *D AN222JIHDX0
*I *1274:F I *C 768 1195 *L 0.00381 *D AN222JIHDX0
*I *1230:F I *C 758 1190 *L 0.00381 *D AN222JIHDX0
*I *1271:F I *C 757 1168 *L 0.00381 *D AN222JIHDX0
*I *1234:F I *C 732 1190 *L 0.00381 *D AN222JIHDX0
*I *1260:F I *C 718 1186 *L 0.00381 *D AN222JIHDX0
*I *1264:F I *C 696 1181 *L 0.00381 *D AN222JIHDX0
*I *1405:D I *C 668 1171 *L 0.0036 *D AN222JIHDX0
*I *1279:F I *C 664 1154 *L 0.00381 *D AN222JIHDX0
*I *1207:F I *C 682 1127 *L 0.00381 *D AN222JIHDX0
*I *1288:F I *C 669 1109 *L 0.00381 *D AN222JIHDX0
*I *1210:F I *C 698 1127 *L 0.00381 *D AN222JIHDX0
*I *1237:F I *C 725 1132 *L 0.00381 *D AN222JIHDX0
*I *1241:F I *C 675 1105 *L 0.00381 *D AN222JIHDX0
*I *1218:F I *C 671 1043 *L 0.00381 *D AN222JIHDX0
*I *1268:F I *C 672 778 *L 0.00381 *D AN222JIHDX0
*I *1248:F I *C 667 769 *L 0.00381 *D AN222JIHDX0
*I *1422:D I *C 711 766 *L 0.0036 *D AN222JIHDX0
*I *806:Q O *C 726 760 *L 0.0001 *D BUJIHDX0

*CAP
1 *1:1 4.79033e-05
2 *1:2 4.79033e-05
3 *1:3 0.000105126
4 *1:4 0.000105126
5 *1:5 0.000766452
6 *1:6 0.000766452
7 *1:7 0.000105126
8 *1:8 0.000946137
9 *1:9 4.79033e-05
10 *1:10 0.00215509
11 *1:11 4.79033e-05
12 *1:12 4.79033e-05
13 *1:13 0.00131408
14 *1:15 4.79033e-05
15 *1:16 4.79033e-05
16 *1:18 0.000526936
17 *1:19 5.25632e-05
18 *1:20 0.000479033
19 *1:21 5.25632e-05
20 *1:22 0.000996959
21 *1:24 0.00110148
22 *1:26 4.91936e-05
23 *1:27 0.000104521
24 *1:28 4.91936e-05
25 *1:29 0.00191855
26 *1:31 4.91936e-05
27 *1:32 0.00186936
28 *1:33 0.00235172
29 *1:35 0.00235172
30 *1:37 0.000344356
31 *1:40 0.000344356
32 *1:41 0.00130651
33 *1:42 0.00303887
34 *1:44 0.00173236
35 *1:46 0.000443362
36 *1:47 0.000443362
37 *1:48 0.000367591
38 *1:49 0.0029239
39 *1:51 0.00255631
40 *1:53 0.000750735
41 *1:54 0.00198259
42 *1:56 0.00322627
43 *1:58 0.000250673
44 *1:59 0.00199441
45 *1:61 0.000250673
46 *1:62 0.000125337
47 *1:64 0.000125337
48 *1:66 0.00127867
49 *1:67 4.07022e-05
50 *1:68 0.00155371
51 *1:69 0.00115918
52 *1:70 4.11053e-05
53 *1:71 0.000315737
54 *1:72 0.00268583
55 *1:73 4.11053e-05
56 *1:74 0.000123316
57 *1:75 0.00392799
58 *1:78 0.000429343
59 *1:79 0.00240135
60 *1:83 0.000306027
61 *1:84 0.00430681
62 *1:85 0.000423993
63 *1:87 4.34942e-05
64 *1:88 0.0211641
65 *1:89 0.000423993
66 *1:90 4.34942e-05
67 *1:92 0.0174791
68 *1:96 3.95101e-05
69 *1:97 0.000660629
70 *1:99 3.95101e-05
71 *1:100 0.00317333
72 *1:101 3.88605e-05
73 *1:103 0.00317333