*SPEF "IEEE 1481-1998"
*DESIGN "sync_fifo"
*DATE "Sun Dec  8 12:44:23 2024"
*VENDOR "Cadence Design Systems, Inc."
*PROGRAM "Innovus"
*VERSION "18.10-p002_1"
*DESIGN_FLOW "PIN_CAP NONE" "NAME_SCOPE LOCAL"
*DIVIDER /
*DELIMITER :
*BUS_DELIMITER []
*T_UNIT 1 NS
*C_UNIT 1 PF
*R_UNIT 1 OHM
*L_UNIT 1 HENRY

// MMMC spef file for corner 'rc_cworst'

*NAME_MAP

*1 FE_OFN1_n_164
*2 FE_OFN0_n_55
*3 data[31]
*4 data[30]
*5 data[29]
*6 data[28]
*7 data[27]
*8 data[26]
*9 data[25]
*10 data[24]
*11 data[23]
*12 data[22]
*13 data[21]
*14 data[20]
*15 data[19]
*16 data[18]
*17 data[17]
*18 data[16]
*19 data[15]
*20 data[14]
*21 data[13]
*22 data[12]
*23 data[11]
*24 data[10]
*25 data[9]
*26 data[8]
*27 data[7]
*28 data[6]
*29 data[5]
*30 data[4]
*31 data[3]
*32 data[2]
*33 data[1]
*34 data[0]
*35 wrreq
*36 rdreq
*37 clock
*38 aclr
*39 q[31]
*40 q[30]
*41 q[29]
*42 q[28]
*43 q[27]
*44 q[26]
*45 q[25]
*46 q[24]
*47 q[23]
*48 q[22]
*49 q[21]
*50 q[20]
*51 q[19]
*52 q[18]
*53 q[17]
*54 q[16]
*55 q[15]
*56 q[14]
*57 q[13]
*58 q[12]
*59 q[11]
*60 q[10]
*61 q[9]
*62 q[8]
*63 q[7]
*64 q[6]
*65 q[5]
*66 q[4]
*67 q[3]
*68 q[2]
*69 q[1]
*70 q[0]
*71 full
*72 empty
*73 almost_full
*74 usedw[1]
*75 usedw[0]
*76 ram\[4\][31]
*77 ram\[4\][30]
*78 ram\[4\][29]
*79 ram\[4\][28]
*80 ram\[4\][27]
*81 ram\[4\][26]
*82 ram\[4\][25]
*83 ram\[4\][24]
*84 ram\[4\][23]
*85 ram\[4\][22]
*86 ram\[4\][21]
*87 ram\[4\][20]
*88 ram\[4\][19]
*89 ram\[4\][18]
*90 ram\[4\][17]
*91 ram\[4\][16]
*92 ram\[4\][15]
*93 ram\[4\][14]
*94 ram\[4\][13]
*95 ram\[4\][12]
*96 ram\[4\][11]
*97 ram\[4\][10]
*98 ram\[4\][9]
*99 ram\[4\][8]
*100 ram\[4\][7]
*101 ram\[4\][6]
*102 ram\[4\][5]
*103 ram\[4\][4]
*104 ram\[4\][3]
*105 ram\[4\][2]
*106 ram\[4\][1]
*107 ram\[4\][0]
*108 ram\[0\][31]
*109 ram\[0\][30]
*110 ram\[0\][29]
*111 ram\[0\][28]
*112 ram\[0\][27]
*113 ram\[0\][26]
*114 ram\[0\][25]
*115 ram\[0\][24]
*116 ram\[0\][23]
*117 ram\[0\][22]
*118 ram\[0\][21]
*119 ram\[0\][20]
*120 ram\[0\][19]
*121 ram\[0\][18]
*122 ram\[0\][17]
*123 ram\[0\][16]
*124 ram\[0\][15]
*125 ram\[0\][14]
*126 ram\[0\][13]
*127 ram\[0\][12]
*128 ram\[0\][11]
*129 ram\[0\][10]
*130 ram\[0\][9]
*131 ram\[0\][8]
*132 ram\[0\][7]
*133 ram\[0\][6]
*134 ram\[0\][5]
*135 ram\[0\][4]
*136 ram\[0\][3]
*137 ram\[0\][2]
*138 ram\[0\][1]
*139 ram\[0\][0]
*140 ram\[2\][31]
*141 ram\[2\][30]
*142 ram\[2\][29]
*143 ram\[2\][28]
*144 ram\[2\][27]
*145 ram\[2\][26]
*146 ram\[2\][25]
*147 ram\[2\][24]
*148 ram\[2\][23]
*149 ram\[2\][22]
*150 ram\[2\][21]
*151 ram\[2\][20]
*152 ram\[2\][19]
*153 ram\[2\][18]
*154 ram\[2\][17]
*155 ram\[2\][16]
*156 ram\[2\][15]
*157 ram\[2\][14]
*158 ram\[2\][13]
*159 ram\[2\][12]
*160 ram\[2\][11]
*161 ram\[2\][10]
*162 ram\[2\][9]
*163 ram\[2\][8]
*164 ram\[2\][7]
*165 ram\[2\][6]
*166 ram\[2\][5]
*167 ram\[2\][4]
*168 ram\[2\][3]
*169 ram\[2\][2]
*170 ram\[2\][1]
*171 ram\[2\][0]
*172 ram\[3\][31]
*173 ram\[3\][30]
*174 ram\[3\][29]
*175 ram\[3\][28]
*176 ram\[3\][27]
*177 ram\[3\][26]
*178 ram\[3\][25]
*179 ram\[3\][24]
*180 ram\[3\][23]
*181 ram\[3\][22]
*182 ram\[3\][21]
*183 ram\[3\][20]
*184 ram\[3\][19]
*185 ram\[3\][18]
*186 ram\[3\][17]
*187 ram\[3\][16]
*188 ram\[3\][15]
*189 ram\[3\][14]
*190 ram\[3\][13]
*191 ram\[3\][12]
*192 ram\[3\][11]
*193 ram\[3\][10]
*194 ram\[3\][9]
*195 ram\[3\][8]
*196 ram\[3\][7]
*197 ram\[3\][6]
*198 ram\[3\][5]
*199 ram\[3\][4]
*200 ram\[3\][3]
*201 ram\[3\][2]
*202 ram\[3\][1]
*203 ram\[3\][0]
*204 ram\[1\][31]
*205 ram\[1\][30]
*206 ram\[1\][29]
*207 ram\[1\][28]
*208 ram\[1\][27]
*209 ram\[1\][26]
*210 ram\[1\][25]
*211 ram\[1\][24]
*212 ram\[1\][23]
*213 ram\[1\][22]
*214 ram\[1\][21]
*215 ram\[1\][20]
*216 ram\[1\][19]
*217 ram\[1\][18]
*218 ram\[1\][17]
*219 ram\[1\][16]
*220 ram\[1\][15]
*221 ram\[1\][14]
*222 ram\[1\][13]
*223 ram\[1\][12]
*224 ram\[1\][11]
*225 ram\[1\][10]
*226 ram\[1\][9]
*227 ram\[1\][8]
*228 ram\[1\][7]
*229 ram\[1\][6]
*230 ram\[1\][5]
*231 ram\[1\][4]
*232 ram\[1\][3]
*233 ram\[1\][2]
*234 ram\[1\][1]
*235 ram\[1\][0]
*236 ram\[5\][31]
*237 ram\[5\][30]
*238 ram\[5\][29]
*239 ram\[5\][28]
*240 ram\[5\][27]
*241 ram\[5\][26]
*242 ram\[5\][25]
*243 ram\[5\][24]
*244 ram\[5\][23]
*245 ram\[5\][22]
*246 ram\[5\][21]
*247 ram\[5\][20]
*248 ram\[5\][19]
*249 ram\[5\][18]
*250 ram\[5\][17]
*251 ram\[5\][16]
*252 ram\[5\][15]
*253 ram\[5\][14]
*254 ram\[5\][13]
*255 ram\[5\][12]
*256 ram\[5\][11]
*257 ram\[5\][10]
*258 ram\[5\][9]
*259 ram\[5\][8]
*260 ram\[5\][7]
*261 ram\[5\][6]
*262 ram\[5\][5]
*263 ram\[5\][4]
*264 ram\[5\][3]
*265 ram\[5\][2]
*266 ram\[5\][1]
*267 ram\[5\][0]
*268 ram\[6\][31]
*269 ram\[6\][30]
*270 ram\[6\][29]
*271 ram\[6\][28]
*272 ram\[6\][27]
*273 ram\[6\][26]
*274 ram\[6\][25]
*275 ram\[6\][24]
*276 ram\[6\][23]
*277 ram\[6\][22]
*278 ram\[6\][21]
*279 ram\[6\][20]
*280 ram\[6\][19]
*281 ram\[6\][18]
*282 ram\[6\][17]
*283 ram\[6\][16]
*284 ram\[6\][15]
*285 ram\[6\][14]
*286 ram\[6\][13]
*287 ram\[6\][12]
*288 ram\[6\][11]
*289 ram\[6\][10]
*290 ram\[6\][9]
*291 ram\[6\][8]
*292 ram\[6\][7]
*293 ram\[6\][6]
*294 ram\[6\][5]
*295 ram\[6\][4]
*296 ram\[6\][3]
*297 ram\[6\][2]
*298 ram\[6\][1]
*299 ram\[6\][0]
*300 ram\[7\][31]
*301 ram\[7\][30]
*302 ram\[7\][29]
*303 ram\[7\][28]
*304 ram\[7\][27]
*305 ram\[7\][26]
*306 ram\[7\][25]
*307 ram\[7\][24]
*308 ram\[7\][23]
*309 ram\[7\][22]
*310 ram\[7\][21]
*311 ram\[7\][20]
*312 ram\[7\][19]
*313 ram\[7\][18]
*314 ram\[7\][17]
*315 ram\[7\][16]
*316 ram\[7\][15]
*317 ram\[7\][14]
*318 ram\[7\][13]
*319 ram\[7\][12]
*320 ram\[7\][11]
*321 ram\[7\][10]
*322 ram\[7\][9]
*323 ram\[7\][8]
*324 ram\[7\][7]
*325 ram\[7\][6]
*326 ram\[7\][5]
*327 ram\[7\][4]
*328 ram\[7\][3]
*329 ram\[7\][2]
*330 ram\[7\][1]
*331 ram\[7\][0]
*332 rd_addr[2]
*333 rd_addr[1]
*334 rd_addr[0]
*335 wr_addr[2]
*336 wr_addr[1]
*337 wr_addr[0]
*338 UNCONNECTED
*339 n_0
*340 n_1
*341 n_2
*342 n_3
*343 n_4
*344 n_5
*345 n_6
*346 n_7
*347 n_8
*348 n_9
*349 n_10
*350 n_11
*351 n_14
*352 n_15
*353 n_16
*354 n_17
*355 n_18
*356 n_19
*357 n_21
*358 n_23
*359 n_24
*360 n_25
*361 n_26
*362 n_27
*363 n_28
*364 n_29
*365 n_30
*366 n_31
*367 n_32
*368 n_33
*369 n_34
*370 n_35
*371 n_36
*372 n_37
*373 n_38
*374 n_39
*375 n_40
*376 n_41
*377 n_42
*378 n_43
*379 n_44
*380 n_45
*381 n_46
*382 n_47
*383 n_48
*384 n_49
*385 n_50
*386 n_51
*387 n_52
*388 n_53
*389 n_54
*390 n_55
*391 n_56
*392 n_57
*393 n_58
*394 n_59
*395 n_60
*396 n_61
*397 n_62
*398 n_63
*399 n_64
*400 n_65
*401 n_66
*402 n_67
*403 n_68
*404 n_69
*405 n_70
*406 n_71
*407 n_72
*408 n_73
*409 n_74
*410 n_75
*411 n_76
*412 n_77
*413 n_78
*414 n_79
*415 n_80
*416 n_81
*417 n_82
*418 n_83
*419 n_84
*420 n_85
*421 n_86
*422 n_87
*423 n_88
*424 n_89
*425 n_90
*426 n_91
*427 n_92
*428 n_93
*429 n_94
*430 n_95
*431 n_96
*432 n_97
*433 n_98
*434 n_99
*435 n_100
*436 n_101
*437 n_102
*438 n_103
*439 n_104
*440 n_105
*441 n_106
*442 n_107
*443 n_108
*444 n_109
*445 n_110
*446 n_111
*447 n_112
*448 n_113
*449 n_114
*450 n_115
*451 n_116
*452 n_117
*453 n_118
*454 n_119
*455 n_120
*456 n_121
*457 n_122
*458 n_123
*459 n_124
*460 n_125
*461 n_126
*462 n_127
*463 n_128
*464 n_129
*465 n_130
*466 n_131
*467 n_132
*468 n_133
*469 n_135
*470 n_136
*471 n_137
*472 n_138
*473 n_139
*474 n_140
*475 n_141
*476 n_142
*477 n_143
*478 n_145
*479 n_146
*480 n_147
*481 n_148
*482 n_149
*483 n_150
*484 n_151
*485 n_152
*486 n_153
*487 n_154
*488 n_155
*489 n_156
*490 n_157
*491 n_158
*492 n_159
*493 n_160
*494 n_161
*495 n_162
*496 n_163
*497 n_164
*498 n_165
*499 n_166
*500 n_167
*501 n_168
*502 n_169
*503 n_170
*504 n_171
*505 n_172
*506 n_173
*507 n_174
*508 n_175
*509 n_176
*510 n_177
*511 n_178
*512 n_179
*513 n_180
*514 n_181
*515 n_182
*516 n_183
*517 n_184
*518 n_185
*519 n_186
*520 n_187
*521 n_188
*522 n_189
*523 n_190
*524 n_191
*525 n_192
*526 n_193
*527 n_194
*528 n_195
*529 n_196
*530 n_197
*531 n_198
*532 n_199
*533 n_200
*534 n_201
*535 n_202
*536 n_203
*537 n_204
*538 n_205
*539 n_206
*540 n_207
*541 n_208
*542 n_209
*543 n_210
*544 n_211
*545 n_212
*546 n_213
*547 n_214
*548 n_215
*549 n_216
*550 n_217
*551 n_218
*552 n_219
*553 n_220
*554 n_221
*555 n_222
*556 n_223
*557 n_224
*558 n_225
*559 n_226
*560 n_227
*561 n_228
*562 n_229
*563 n_230
*564 n_231
*565 n_232
*566 n_233
*567 n_234
*568 n_235
*569 n_236
*570 n_237
*571 n_238
*572 n_239
*573 n_240
*574 n_241
*575 n_242
*576 n_243
*577 n_244
*578 n_245
*579 n_246
*580 n_247
*581 n_248
*582 n_249
*583 n_250
*584 n_251
*585 n_252
*586 n_253
*587 n_254
*588 n_255
*589 n_256
*590 n_257
*591 n_258
*592 n_259
*593 n_260
*594 n_261
*595 n_262
*596 n_263
*597 n_264
*598 n_265
*599 n_266
*600 n_267
*601 n_268
*602 n_269
*603 n_270
*604 n_271
*605 n_272
*606 n_273
*607 n_274
*608 n_275
*609 n_276
*610 n_277
*611 n_278
*612 n_279
*613 n_280
*614 n_281
*615 n_282
*616 n_283
*617 n_284
*618 n_285
*619 n_286
*620 n_287
*621 n_288
*622 n_289
*623 n_290
*624 n_291
*625 n_292
*626 n_293
*627 n_294
*628 n_295
*629 n_296
*630 n_297
*631 n_298
*632 n_299
*633 n_300
*634 n_301
*635 n_302
*636 n_303
*637 n_304
*638 n_305
*639 n_306
*640 n_307
*641 n_308
*642 n_309
*643 n_310
*644 n_311
*645 n_312
*646 n_313
*647 n_314
*648 n_315
*649 n_316
*650 n_317
*651 n_318
*652 n_319
*653 n_320
*654 n_321
*655 n_322
*656 n_323
*657 n_324
*658 n_325
*659 n_326
*660 n_327
*661 n_328
*662 n_329
*663 n_330
*664 n_331
*665 n_332
*666 n_333
*667 n_334
*668 n_335
*669 n_336
*670 n_337
*671 n_338
*672 n_339
*673 n_340
*674 n_341
*675 n_342
*676 n_343
*677 n_344
*678 n_345
*679 n_346
*680 n_347
*681 n_348
*682 n_349
*683 n_350
*684 n_351
*685 n_352
*686 n_353
*687 n_354
*688 n_355
*689 n_356
*690 n_357
*691 n_358
*692 n_359
*693 n_360
*694 n_361
*695 n_362
*696 n_363
*697 n_364
*698 n_365
*699 n_366
*700 n_367
*701 n_368
*702 n_369
*703 n_370
*704 n_371
*705 n_372
*706 n_373
*707 n_374
*708 n_375
*709 n_376
*710 n_377
*711 n_378
*712 n_379
*713 n_380
*714 n_381
*715 n_382
*716 n_383
*717 n_384
*718 n_385
*719 n_386
*720 n_387
*721 n_388
*722 n_389
*723 n_390
*724 n_391
*725 n_392
*726 n_393
*727 n_394
*728 n_395
*729 n_396
*730 n_397
*731 n_398
*732 n_399
*733 n_400
*734 n_401
*735 n_402
*736 n_403
*737 n_404
*738 n_405
*739 n_406
*740 n_407
*741 n_408
*742 n_409
*743 n_410
*744 n_411
*745 n_412
*746 n_413
*747 n_414
*748 n_415
*749 n_416
*750 n_417
*751 n_418
*752 n_419
*753 n_420
*754 n_421
*755 n_422
*756 n_423
*757 n_424
*758 n_425
*759 n_426
*760 n_427
*761 n_428
*762 n_429
*763 n_430
*764 n_431
*765 n_432
*766 n_433
*767 n_434
*768 n_435
*769 n_436
*770 n_437
*771 n_438
*772 n_439
*773 n_440
*774 n_441
*775 n_442
*776 n_443
*777 n_444
*778 n_445
*779 n_446
*780 n_447
*781 n_448
*782 n_449
*783 n_450
*784 n_451
*785 n_452
*786 n_453
*787 n_454
*788 n_455
*789 n_456
*790 n_457
*791 n_458
*792 n_459
*793 n_460
*794 n_461
*795 n_462
*796 n_463
*797 n_464
*798 n_465
*799 n_466
*800 n_467
*801 n_472
*802 n_473
*803 n_474
*804 n_475
*805 usedw[2]
*806 FE_OFC1_n_164
*807 FE_OFC0_n_55
*808 q_reg\[2\]
*809 q_reg\[6\]
*810 q_reg\[16\]
*811 q_reg\[17\]
*812 q_reg\[7\]
*813 q_reg\[18\]
*814 q_reg\[19\]
*815 q_reg\[1\]
*816 q_reg\[8\]
*817 q_reg\[20\]
*818 q_reg\[21\]
*819 q_reg\[22\]
*820 q_reg\[9\]
*821 q_reg\[23\]
*822 q_reg\[10\]
*823 q_reg\[24\]
*824 q_reg\[0\]
*825 q_reg\[11\]
*826 q_reg\[25\]
*827 q_reg\[26\]
*828 q_reg\[27\]
*829 q_reg\[12\]
*830 q_reg\[28\]
*831 q_reg\[29\]
*832 q_reg\[3\]
*833 q_reg\[13\]
*834 q_reg\[30\]
*835 q_reg\[31\]
*836 q_reg\[4\]
*837 q_reg\[14\]
*838 q_reg\[5\]
*839 q_reg\[15\]
*840 ram_reg\[4\]\[20\]
*841 ram_reg\[0\]\[22\]
*842 ram_reg\[0\]\[23\]
*843 ram_reg\[0\]\[24\]
*844 ram_reg\[0\]\[25\]
*845 ram_reg\[0\]\[26\]
*846 ram_reg\[0\]\[27\]
*847 ram_reg\[0\]\[28\]
*848 ram_reg\[0\]\[29\]
*849 ram_reg\[0\]\[30\]
*850 ram_reg\[0\]\[31\]
*851 ram_reg\[4\]\[0\]
*852 ram_reg\[4\]\[1\]
*853 ram_reg\[4\]\[2\]
*854 ram_reg\[4\]\[3\]
*855 ram_reg\[4\]\[4\]
*856 ram_reg\[4\]\[5\]
*857 ram_reg\[4\]\[6\]
*858 ram_reg\[4\]\[7\]
*859 ram_reg\[4\]\[8\]
*860 ram_reg\[4\]\[9\]
*861 ram_reg\[4\]\[10\]
*862 ram_reg\[4\]\[11\]
*863 ram_reg\[4\]\[12\]
*864 ram_reg\[4\]\[13\]
*865 ram_reg\[4\]\[14\]
*866 ram_reg\[4\]\[15\]
*867 ram_reg\[4\]\[16\]
*868 ram_reg\[4\]\[17\]
*869 ram_reg\[4\]\[18\]
*870 ram_reg\[4\]\[19\]
*871 usedw_reg\[1\]
*872 ram_reg\[4\]\[21\]
*873 ram_reg\[4\]\[22\]
*874 ram_reg\[4\]\[23\]
*875 ram_reg\[4\]\[24\]
*876 ram_reg\[4\]\[25\]
*877 ram_reg\[4\]\[26\]
*878 ram_reg\[4\]\[27\]
*879 ram_reg\[4\]\[28\]
*880 ram_reg\[4\]\[29\]
*881 ram_reg\[4\]\[30\]
*882 ram_reg\[4\]\[31\]
*883 ram_reg\[0\]\[0\]
*884 ram_reg\[0\]\[1\]
*885 ram_reg\[0\]\[2\]
*886 ram_reg\[0\]\[3\]
*887 ram_reg\[0\]\[4\]
*888 ram_reg\[0\]\[5\]
*889 ram_reg\[0\]\[6\]
*890 ram_reg\[0\]\[7\]
*891 ram_reg\[0\]\[8\]
*892 ram_reg\[0\]\[9\]
*893 ram_reg\[0\]\[10\]
*894 ram_reg\[0\]\[11\]
*895 ram_reg\[0\]\[12\]
*896 ram_reg\[0\]\[13\]
*897 ram_reg\[0\]\[15\]
*898 ram_reg\[0\]\[14\]
*899 ram_reg\[0\]\[16\]
*900 ram_reg\[0\]\[17\]
*901 ram_reg\[0\]\[18\]
*902 ram_reg\[0\]\[19\]
*903 ram_reg\[0\]\[20\]
*904 ram_reg\[0\]\[21\]
*905 g7825__8780
*906 g7841__4296
*907 ram_reg\[2\]\[9\]
*908 ram_reg\[3\]\[4\]
*909 ram_reg\[2\]\[10\]
*910 ram_reg\[2\]\[11\]
*911 ram_reg\[2\]\[12\]
*912 ram_reg\[3\]\[0\]
*913 ram_reg\[2\]\[13\]
*914 ram_reg\[2\]\[14\]
*915 ram_reg\[2\]\[15\]
*916 ram_reg\[2\]\[16\]
*917 ram_reg\[2\]\[17\]
*918 ram_reg\[2\]\[18\]
*919 ram_reg\[2\]\[19\]
*920 ram_reg\[2\]\[20\]
*921 ram_reg\[2\]\[21\]
*922 ram_reg\[2\]\[22\]
*923 ram_reg\[2\]\[23\]
*924 ram_reg\[2\]\[24\]
*925 ram_reg\[2\]\[25\]
*926 ram_reg\[2\]\[26\]
*927 ram_reg\[2\]\[27\]
*928 ram_reg\[2\]\[28\]
*929 ram_reg\[2\]\[29\]
*930 ram_reg\[2\]\[30\]
*931 ram_reg\[2\]\[31\]
*932 ram_reg\[3\]\[1\]
*933 ram_reg\[3\]\[2\]
*934 ram_reg\[3\]\[3\]
*935 ram_reg\[3\]\[5\]
*936 ram_reg\[2\]\[8\]
*937 ram_reg\[3\]\[6\]
*938 ram_reg\[3\]\[7\]
*939 ram_reg\[3\]\[9\]
*940 ram_reg\[2\]\[4\]
*941 ram_reg\[3\]\[10\]
*942 ram_reg\[3\]\[11\]
*943 ram_reg\[3\]\[12\]
*944 ram_reg\[2\]\[0\]
*945 ram_reg\[3\]\[13\]
*946 ram_reg\[3\]\[14\]
*947 ram_reg\[3\]\[15\]
*948 ram_reg\[3\]\[17\]
*949 ram_reg\[3\]\[18\]
*950 ram_reg\[3\]\[19\]
*951 ram_reg\[3\]\[21\]
*952 ram_reg\[1\]\[24\]
*953 ram_reg\[3\]\[22\]
*954 ram_reg\[3\]\[23\]
*955 ram_reg\[3\]\[25\]
*956 ram_reg\[1\]\[20\]
*957 ram_reg\[3\]\[26\]
*958 ram_reg\[3\]\[27\]
*959 ram_reg\[3\]\[28\]
*960 ram_reg\[1\]\[16\]
*961 ram_reg\[3\]\[29\]
*962 ram_reg\[3\]\[30\]
*963 ram_reg\[3\]\[31\]
*964 ram_reg\[5\]\[1\]
*965 ram_reg\[5\]\[2\]
*966 ram_reg\[5\]\[3\]
*967 ram_reg\[5\]\[5\]
*968 ram_reg\[1\]\[8\]
*969 ram_reg\[5\]\[6\]
*970 ram_reg\[5\]\[7\]
*971 ram_reg\[6\]\[29\]
*972 ram_reg\[1\]\[4\]
*973 ram_reg\[5\]\[9\]
*974 ram_reg\[5\]\[10\]
*975 ram_reg\[5\]\[11\]
*976 ram_reg\[5\]\[12\]
*977 ram_reg\[5\]\[13\]
*978 ram_reg\[5\]\[14\]
*979 ram_reg\[5\]\[15\]
*980 ram_reg\[5\]\[17\]
*981 ram_reg\[5\]\[18\]
*982 ram_reg\[5\]\[19\]
*983 ram_reg\[5\]\[21\]
*984 ram_reg\[5\]\[22\]
*985 ram_reg\[5\]\[23\]
*986 ram_reg\[5\]\[25\]
*987 ram_reg\[5\]\[26\]
*988 ram_reg\[5\]\[27\]
*989 ram_reg\[5\]\[28\]
*990 ram_reg\[5\]\[29\]
*991 ram_reg\[5\]\[30\]
*992 ram_reg\[5\]\[31\]
*993 ram_reg\[6\]\[1\]
*994 ram_reg\[6\]\[2\]
*995 ram_reg\[6\]\[3\]
*996 ram_reg\[6\]\[5\]
*997 ram_reg\[6\]\[6\]
*998 ram_reg\[6\]\[7\]
*999 ram_reg\[6\]\[9\]
*1000 ram_reg\[6\]\[10\]
*1001 ram_reg\[6\]\[11\]
*1002 ram_reg\[6\]\[12\]
*1003 ram_reg\[6\]\[13\]
*1004 ram_reg\[6\]\[14\]
*1005 ram_reg\[6\]\[15\]
*1006 ram_reg\[6\]\[18\]
*1007 ram_reg\[6\]\[19\]
*1008 ram_reg\[6\]\[20\]
*1009 ram_reg\[6\]\[21\]
*1010 ram_reg\[6\]\[22\]
*1011 ram_reg\[6\]\[23\]
*1012 ram_reg\[6\]\[25\]
*1013 ram_reg\[6\]\[26\]
*1014 ram_reg\[6\]\[27\]
*1015 ram_reg\[6\]\[28\]
*1016 ram_reg\[7\]\[8\]
*1017 g7822__3772
*1018 g7840__1474
*1019 g7824__4547
*1020 g7839__9682
*1021 g7838__2683
*1022 g7837__1309
*1023 g7823__6877
*1024 g7836__2900
*1025 g7835__2391
*1026 g7821__7675
*1027 g7834__7118
*1028 g7833__8757
*1029 g7832__1786
*1030 g7820__5953
*1031 g7831__5703
*1032 g7817__7114
*1033 g7830__5266
*1034 g7829__2250
*1035 g7849__6083
*1036 g7819__2703
*1037 g7848__5795
*1038 g7828__7344
*1039 g7847__1840
*1040 g7846__5019
*1041 g7845__1857
*1042 g7827__9906
*1043 g7844__8780
*1044 g7826__4296
*1045 g7843__3772
*1046 g7842__1474
*1047 g7818__4547
*1048 ram_reg\[5\]\[8\]
*1049 ram_reg\[7\]\[31\]
*1050 ram_reg\[7\]\[30\]
*1051 ram_reg\[7\]\[29\]
*1052 ram_reg\[7\]\[4\]
*1053 ram_reg\[7\]\[28\]
*1054 ram_reg\[7\]\[0\]
*1055 ram_reg\[7\]\[27\]
*1056 ram_reg\[7\]\[26\]
*1057 ram_reg\[7\]\[25\]
*1058 ram_reg\[7\]\[23\]
*1059 ram_reg\[7\]\[22\]
*1060 ram_reg\[7\]\[21\]
*1061 ram_reg\[7\]\[19\]
*1062 ram_reg\[6\]\[24\]
*1063 ram_reg\[7\]\[18\]
*1064 ram_reg\[7\]\[17\]
*1065 ram_reg\[7\]\[15\]
*1066 ram_reg\[7\]\[14\]
*1067 ram_reg\[1\]\[0\]
*1068 ram_reg\[7\]\[13\]
*1069 ram_reg\[7\]\[12\]
*1070 ram_reg\[7\]\[11\]
*1071 ram_reg\[7\]\[10\]
*1072 ram_reg\[6\]\[30\]
*1073 ram_reg\[7\]\[9\]
*1074 ram_reg\[7\]\[7\]
*1075 ram_reg\[7\]\[6\]
*1076 ram_reg\[7\]\[5\]
*1077 ram_reg\[7\]\[3\]
*1078 ram_reg\[6\]\[4\]
*1079 ram_reg\[6\]\[16\]
*1080 ram_reg\[7\]\[24\]
*1081 ram_reg\[7\]\[20\]
*1082 ram_reg\[7\]\[16\]
*1083 ram_reg\[6\]\[8\]
*1084 ram_reg\[5\]\[4\]
*1085 ram_reg\[6\]\[0\]
*1086 ram_reg\[5\]\[24\]
*1087 ram_reg\[5\]\[20\]
*1088 ram_reg\[5\]\[16\]
*1089 ram_reg\[6\]\[17\]
*1090 ram_reg\[7\]\[2\]
*1091 ram_reg\[7\]\[1\]
*1092 ram_reg\[5\]\[0\]
*1093 ram_reg\[3\]\[24\]
*1094 ram_reg\[3\]\[20\]
*1095 ram_reg\[3\]\[16\]
*1096 ram_reg\[3\]\[8\]
*1097 ram_reg\[1\]\[1\]
*1098 ram_reg\[1\]\[2\]
*1099 ram_reg\[1\]\[3\]
*1100 ram_reg\[1\]\[5\]
*1101 ram_reg\[1\]\[6\]
*1102 ram_reg\[1\]\[7\]
*1103 ram_reg\[1\]\[9\]
*1104 ram_reg\[1\]\[10\]
*1105 ram_reg\[1\]\[11\]
*1106 ram_reg\[1\]\[12\]
*1107 ram_reg\[1\]\[13\]
*1108 ram_reg\[1\]\[14\]
*1109 ram_reg\[1\]\[15\]
*1110 ram_reg\[1\]\[17\]
*1111 ram_reg\[1\]\[18\]
*1112 ram_reg\[1\]\[19\]
*1113 ram_reg\[1\]\[21\]
*1114 ram_reg\[1\]\[22\]
*1115 ram_reg\[1\]\[23\]
*1116 ram_reg\[1\]\[25\]
*1117 ram_reg\[1\]\[26\]
*1118 ram_reg\[1\]\[27\]
*1119 ram_reg\[1\]\[28\]
*1120 ram_reg\[1\]\[29\]
*1121 ram_reg\[1\]\[30\]
*1122 ram_reg\[1\]\[31\]
*1123 ram_reg\[2\]\[1\]
*1124 ram_reg\[2\]\[2\]
*1125 ram_reg\[2\]\[3\]
*1126 ram_reg\[2\]\[5\]
*1127 ram_reg\[2\]\[6\]
*1128 ram_reg\[2\]\[7\]
*1129 ram_reg\[6\]\[31\]
*1130 g8112__9682
*1131 g8096__2683
*1132 g8097__1309
*1133 g8098__6877
*1134 g8099__2900
*1135 g8100__2391
*1136 g8101__7675
*1137 g8102__7118
*1138 g8103__8757
*1139 g8104__1786
*1140 g8105__5953
*1141 g8106__5703
*1142 g8107__7114
*1143 g8108__5266
*1144 g8109__2250
*1145 g8110__6083
*1146 g8095__2703
*1147 g8111__5795
*1148 g8113__7344
*1149 g8114__1840
*1150 g8115__5019
*1151 g8116__1857
*1152 g8117__9906
*1153 g8118__8780
*1154 g8119__4296
*1155 g8120__3772
*1156 g8121__1474
*1157 g8122__4547
*1158 g8123__9682
*1159 g8124__2683
*1160 g8125__1309
*1161 g8126__6877
*1162 g8127__2900
*1163 g8128__2391
*1164 g8129__7675
*1165 g8130__7118
*1166 g8131__8757
*1167 g8132__1786
*1168 g8134__5953
*1169 g8133__5703
*1170 g8135__7114
*1171 g8136__5266
*1172 g8137__2250
*1173 g8138__6083
*1174 g8139__2703
*1175 g8140__5795
*1176 g8141__7344
*1177 g8142__1840
*1178 g8144__5019
*1179 g8143__1857
*1180 g8145__9906
*1181 g8146__8780
*1182 g8147__4296
*1183 g8148__3772
*1184 g8149__1474
*1185 g8150__4547
*1186 g8151__9682
*1187 g8152__2683
*1188 g8153__1309
*1189 g8154__6877
*1190 g8155__2900
*1191 g8156__2391
*1192 g8157__7675
*1193 g8062__7118
*1194 g8061__8757
*1195 rd_addr_reg\[2\]
*1196 wr_addr_reg\[2\]
*1197 g8268__1786
*1198 g8259__5953
*1199 g8260__5703
*1200 g8261__7114
*1201 g8258__5266
*1202 g8256__2250
*1203 g8257__6083
*1204 g8263__2703
*1205 g8264__5795
*1206 g8255__7344
*1207 g8265__1840
*1208 g8267__5019
*1209 g8269__1857
*1210 g8271__9906
*1211 g8356__8780
*1212 g8272__4296
*1213 g8273__3772
*1214 g8274__1474
*1215 g8275__4547
*1216 g8276__9682
*1217 g8277__2683
*1218 g8278__1309
*1219 g8279__6877
*1220 g8281__2900
*1221 g8280__2391
*1222 g8282__7675
*1223 g8283__7118
*1224 g8284__8757
*1225 g8285__1786
*1226 g8286__5953
*1227 g8287__5703
*1228 g8288__7114
*1229 g8289__5266
*1230 g8290__2250
*1231 g8291__6083
*1232 g8292__2703
*1233 g8293__5795
*1234 g8294__7344
*1235 g8295__1840
*1236 g8296__5019
*1237 g8297__1857
*1238 g8298__9906
*1239 g8299__8780
*1240 g8300__4296
*1241 g8301__3772
*1242 g8302__1474
*1243 g8303__4547
*1244 g8304__9682
*1245 g8305__2683
*1246 g8306__1309
*1247 g8307__6877
*1248 g8308__2900
*1249 g8309__2391
*1250 g8310__7675
*1251 g8311__7118
*1252 g8312__8757
*1253 g8313__1786
*1254 g8314__5953
*1255 g8315__5703
*1256 g8316__7114
*1257 g8317__5266
*1258 g8318__2250
*1259 g8322__6083
*1260 g8323__2703
*1261 g8324__5795
*1262 g8325__7344
*1263 g8326__1840
*1264 g8327__5019
*1265 g8328__1857
*1266 g8329__9906
*1267 g8330__8780
*1268 g8331__4296
*1269 g8332__3772
*1270 g8333__1474
*1271 g8334__4547
*1272 g8335__9682
*1273 g8336__2683
*1274 g8337__1309
*1275 g8338__6877
*1276 g8339__2900
*1277 g8340__2391
*1278 g8341__7675
*1279 g8342__7118
*1280 g8343__8757
*1281 g8344__1786
*1282 g8345__5953
*1283 g8346__5703
*1284 g8347__7114
*1285 g8348__5266
*1286 g8349__2250
*1287 g8350__6083
*1288 g8351__2703
*1289 g8352__5795
*1290 g8353__7344
*1291 g8354__1840
*1292 g8355__5019
*1293 wr_addr_reg\[1\]
*1294 g8357__1857
*1295 g8358__9906
*1296 g8359__8780
*1297 g8360__4296
*1298 g8361__3772
*1299 g8362__1474
*1300 g8363__4547
*1301 g8364__9682
*1302 g8365__2683
*1303 g8366__1309
*1304 g8367__6877
*1305 g8368__2900
*1306 g8369__2391
*1307 g8370__7675
*1308 g8371__7118
*1309 g8372__8757
*1310 g8373__1786
*1311 g8374__5953
*1312 g8375__5703
*1313 g8376__7114
*1314 g8377__5266
*1315 g8378__2250
*1316 g8379__6083
*1317 g8380__2703
*1318 g8381__5795
*1319 g8382__7344
*1320 g8383__1840
*1321 g8384__5019
*1322 g8385__1857
*1323 g8386__9906
*1324 g8387__8780
*1325 g8388__4296
*1326 g8389__3772
*1327 g8390__1474
*1328 g8391__4547
*1329 g8392__9682
*1330 g8393__2683
*1331 g8394__1309
*1332 g8395__6877
*1333 g8396__2900
*1334 g8397__2391
*1335 g8398__7675
*1336 g8399__7118
*1337 g8400__8757
*1338 g8401__1786
*1339 g8402__5953
*1340 g8403__5703
*1341 g8404__7114
*1342 g8405__5266
*1343 g8406__2250
*1344 g8407__6083
*1345 g8408__2703
*1346 g8409__5795
*1347 g8410__7344
*1348 g8411__1840
*1349 g8412__5019
*1350 g8413__1857
*1351 g8414__9906
*1352 g8415__8780
*1353 g8416__4296
*1354 g8417__3772
*1355 g8418__1474
*1356 g8419__4547
*1357 g8420__9682
*1358 g8421__2683
*1359 g8422__1309
*1360 g8423__6877
*1361 g8424__2900
*1362 g8425__2391
*1363 g8426__7675
*1364 g8427__7118
*1365 g8428__8757
*1366 g8429__1786
*1367 g8430__5953
*1368 g8431__5703
*1369 g8432__7114
*1370 g8433__5266
*1371 g8434__2250
*1372 g8207__6083
*1373 g8241__2703
*1374 g8242__5795
*1375 g8243__7344
*1376 g8244__1840
*1377 g8245__5019
*1378 g8246__1857
*1379 g8247__9906
*1380 g8254__8780
*1381 g8248__4296
*1382 g8270__3772
*1383 g8249__1474
*1384 g8266__4547
*1385 g8250__9682
*1386 g8251__2683
*1387 g8252__1309
*1388 g8253__6877
*1389 g8262__2900
*1390 rd_addr_reg\[1\]
*1391 g8078__2391
*1392 g8069__7675
*1393 g8067__7118
*1394 g8071__8757
*1395 g8073__1786
*1396 g8074__5953
*1397 g8075__5703
*1398 g8076__7114
*1399 g8077__5266
*1400 g8068__2250
*1401 g8079__6083
*1402 g8080__2703
*1403 g8081__5795
*1404 g8064__7344
*1405 g8082__1840
*1406 g8083__5019
*1407 g8084__1857
*1408 g8085__9906
*1409 g8087__4296
*1410 g8088__3772
*1411 g8089__1474
*1412 g8090__4547
*1413 g8091__9682
*1414 g8092__2683
*1415 g8093__1309
*1416 g8094__6877
*1417 g8086__2900
*1418 g8158__7675
*1419 g8240__7118
*1420 g8063__8757
*1421 g8072__1786
*1422 g8066__5953
*1423 g8070__5703
*1424 g8065__7114
*1425 usedw_reg\[0\]
*1426 g8464__5266
*1427 g8440__2250
*1428 g8441__6083
*1429 g8442__2703
*1430 g8443__5795
*1431 g8444__7344
*1432 g8445__1840
*1433 g8446__5019
*1434 g8447__1857
*1435 g8448__9906
*1436 g8449__8780
*1437 g8450__4296
*1438 g8451__3772
*1439 g8452__1474
*1440 g8453__4547
*1441 g8454__9682
*1442 g8455__2683
*1443 g8456__1309
*1444 g8457__6877
*1445 g8458__2900
*1446 g8459__2391
*1447 g8460__7675
*1448 g8461__7118
*1449 g8462__8757
*1450 g8463__1786
*1451 g8439__5953
*1452 g8465__5703
*1453 g8466__7114
*1454 g8467__5266
*1455 g8468__2250
*1456 g8469__6083
*1457 g8470__2703
*1458 g8489__5795
*1459 g8488__7344
*1460 g8474__1840
*1461 g8475__5019
*1462 g8476__1857
*1463 g8477__9906
*1464 g8478__8780
*1465 g8479__4296
*1466 g8480__3772
*1467 g8481__1474
*1468 g8482__4547
*1469 g8483__9682
*1470 g8484__2683
*1471 g8485__1309
*1472 g8486__6877
*1473 g8487__2900
*1474 g8472__2391
*1475 g8471__7675
*1476 g8215__7118
*1477 g8491__8757
*1478 g8492__1786
*1479 g8493__5953
*1480 g8494__5703
*1481 g8495__7114
*1482 g8496__5266
*1483 g8497__2250
*1484 g8498__6083
*1485 g8499__2703
*1486 g8500__5795
*1487 g8501__7344
*1488 g8502__1840
*1489 g8503__5019
*1490 g8504__1857
*1491 g8505__9906
*1492 g8506__8780
*1493 g8507__4296
*1494 g8208__3772
*1495 g8209__1474
*1496 g8210__4547
*1497 g8211__9682
*1498 g8212__2683
*1499 g8213__1309
*1500 g8214__6877
*1501 g8490__2900
*1502 g8216__2391
*1503 g8217__7675
*1504 g8218__7118
*1505 g8219__8757
*1506 g8220__1786
*1507 g8221__5953
*1508 g8222__5703
*1509 g8223__7114
*1510 g8224__5266
*1511 g8225__2250
*1512 g8226__6083
*1513 g8227__2703
*1514 g8228__5795
*1515 g8229__7344
*1516 g8230__1840
*1517 g8231__5019
*1518 g8232__1857
*1519 g8233__9906
*1520 g8234__8780
*1521 g8235__4296
*1522 g8236__3772
*1523 g8237__1474
*1524 g8238__4547
*1525 g8239__9682
*1526 g8437__2683
*1527 g8438__1309
*1528 g8473__6877
*1529 rd_addr_reg\[0\]
*1530 g8510__2900
*1531 g8511__2391
*1532 g8518__7675
*1533 g8513__7118
*1534 g8512__8757
*1535 g8519__1786
*1536 wr_addr_reg\[0\]
*1537 g8530__7114
*1538 g8520__5266
*1539 g8517__2250
*1540 g8523__6083
*1541 g8521__2703
*1542 g8522__5795
*1543 g8516__7344
*1544 g8529__1840
*1545 g8528__5019
*1546 g8533__1857
*1547 g8532__9906
*1548 g8526__8780
*1549 g8524__4296
*1550 g8525__3772
*1551 g8527__1474
*1552 g8531__4547
*1553 g8543__9682
*1554 g8539__2683
*1555 g8534__1309
*1556 g8535__6877
*1557 g8542__2900
*1558 g8541__2391
*1559 g8536__7675
*1560 g8540__7118
*1561 g8537__8757
*1562 g8538__1786
*1563 g8545
*1564 g8544
*1565 g2
*1566 g3
*1567 g8844
*1568 g8845
*1569 usedw_reg\[2\]


*PORTS

*3 I *C 1430 717
*4 I *C 1430 700
*5 I *C 709 1430
*6 I *C 710 1430
*7 I *C 1430 735
*8 I *C 0 744
*9 I *C 799 1430
*10 I *C 0 691
*11 I *C 1430 686
*12 I *C 635 1430
*13 I *C 1430 680
*14 I *C 0 710
*15 I *C 0 705
*16 I *C 665 1430
*17 I *C 695 1430
*18 I *C 668 1430
*19 I *C 758 1430
*20 I *C 1430 691
*21 I *C 804 1430
*22 I *C 715 0
*23 I *C 733 1430
*24 I *C 649 1430
*25 I *C 0 716
*26 I *C 0 755
*27 I *C 0 694
*28 I *C 1430 769
*29 I *C 804 1430
*30 I *C 1430 753
*31 I *C 751 1430
*32 I *C 678 1430
*33 I *C 763 1430
*34 I *C 1430 787
*35 I *C 741 0
*36 I *C 733 0
*37 I *C 728 1430
*38 I *C 692 0
*39 O *C 1430 724
*40 O *C 1430 691
*41 O *C 692 1430
*42 O *C 703 1430
*43 O *C 1430 728
*44 O *C 0 733
*45 O *C 786 1430
*46 O *C 0 703
*47 O *C 1430 682
*48 O *C 631 1430
*49 O *C 1430 676
*50 O *C 693 0
*51 O *C 0 687
*52 O *C 669 1430
*53 O *C 683 1430
*54 O *C 660 1430
*55 O *C 768 1430
*56 O *C 1430 692
*57 O *C 783 1430
*58 O *C 698 0
*59 O *C 723 1430
*60 O *C 645 1430
*61 O *C 0 711
*62 O *C 0 742
*63 O *C 0 698
*64 O *C 1430 771
*65 O *C 785 1430
*66 O *C 1430 745
*67 O *C 765 1430
*68 O *C 677 1430
*69 O *C 759 1430
*70 O *C 788 1430
*71 O *C 746 0
*72 O *C 746 0
*805 O *C 743 0
*74 O *C 740 0
*75 O *C 743 0
*73 O *C 744 0


*D_NET *1 0.117216

*CONN
*I *1417:F I *C 714 724 *L 0.00381 *D AN222JIHDX0
*I *1423:F I *C 696 729 *L 0.00381 *D AN222JIHDX0
*I *1392:F I *C 682 729 *L 0.00381 *D AN222JIHDX0
*I *1399:F I *C 670 711 *L 0.00381 *D AN222JIHDX0
*I *1400:F I *C 644 706 *L 0.00381 *D AN222JIHDX0
*I *1397:F I *C 646 724 *L 0.00381 *D AN222JIHDX0
*I *1403:F I *C 646 747 *L 0.00381 *D AN222JIHDX0
*I *1421:F I *C 650 756 *L 0.00381 *D AN222JIHDX0
*I *1393:F I *C 654 796 *L 0.00381 *D AN222JIHDX0
*I *1395:F I *C 670 801 *L 0.00381 *D AN222JIHDX0
*I *1404:F I *C 676 836 *L 0.00381 *D AN222JIHDX0
*I *1422:D I *C 688 838 *L 0.0036 *D AN222JIHDX0
*I *1391:F I *C 652 854 *L 0.00381 *D AN222JIHDX0
*I *1409:F I *C 701 845 *L 0.00381 *D AN222JIHDX0
*I *1396:F I *C 645 854 *L 0.00381 *D AN222JIHDX0
*I *1408:F I *C 707 849 *L 0.00381 *D AN222JIHDX0
*I *1405:F I *C 725 849 *L 0.00381 *D AN222JIHDX0
*I *1416:F I *C 759 854 *L 0.00381 *D AN222JIHDX0
*I *1412:F I *C 780 854 *L 0.00381 *D AN222JIHDX0
*I *1415:F I *C 788 849 *L 0.00381 *D AN222JIHDX0
*I *1401:F I *C 786 810 *L 0.00381 *D AN222JIHDX0
*I *1406:F I *C 786 792 *L 0.00381 *D AN222JIHDX0
*I *1402:F I *C 762 783 *L 0.00381 *D AN222JIHDX0
*I *1420:F I *C 762 796 *L 0.00381 *D AN222JIHDX0
*I *1424:D I *C 779 775 *L 0.0036 *D AN222JIHDX0
*I *1410:F I *C 782 760 *L 0.00381 *D AN222JIHDX0
*I *1407:F I *C 779 742 *L 0.00381 *D AN222JIHDX0
*I *1413:F I *C 782 729 *L 0.00381 *D AN222JIHDX0
*I *1411:D I *C 780 712 *L 0.0036 *D AN222JIHDX0
*I *1398:F I *C 788 697 *L 0.00381 *D AN222JIHDX0
*I *1394:F I *C 779 697 *L 0.00381 *D AN222JIHDX0
*I *1414:F I *C 762 697 *L 0.00381 *D AN222JIHDX0
*I *806:Q O *C 733 697 *L 0.0001 *D BUJIHDX0

*CAP
1 *1:1 4.04281e-05
2 *1:2 4.04281e-05
3 *1:3 0.00109456
4 *1:4 0.00109456
5 *1:5 0.000323425
6 *1:6 0.000323425
7 *1:7 0.00025259
8 *1:8 0.00130505
9 *1:10 0.00172603
10 *1:13 0.000673573
11 *1:15 0.00135325
12 *1:16 0.00135325
13 *1:17 0.000247685
14 *1:18 0.00253628
15 *1:20 0.00233835
16 *1:22 0.00100437
17 *1:23 4.9752e-05
18 *1:25 0.00100437
19 *1:26 0.000396199
20 *1:28 0.000245974
21 *1:29 0.000396199
22 *1:30 0.000196779
23 *1:31 4.91947e-05
24 *1:33 4.70805e-05
25 *1:34 0.00197738
26 *1:36 4.70805e-05
27 *1:37 0.00197738
28 *1:40 0.000196779
29 *1:41 0.000541142
30 *1:42 0.000344363
31 *1:44 0.000753289
32 *1:46 0.00389782
33 *1:47 0.00314453
34 *1:49 0.000322977
35 *1:50 0.00170716
36 *1:51 0.00138419
37 *1:53 0.000394355
38 *1:55 0.00342851
39 *1:56 0.00312859
40 *1:58 0.000461024
41 *1:59 9.44325e-05
42 *1:61 0.00166472
43 *1:62 0.00160717
44 *1:64 0.0012037
45 *1:65 4.94074e-05
46 *1:66 0.00160717
47 *1:67 4.94074e-05