*SPEF "IEEE 1481-1998"
*DESIGN "async_fifo"
*DATE "Sun Dec  8 16:44:02 2024"
*VENDOR "Cadence Design Systems, Inc."
*PROGRAM "Innovus"
*VERSION "18.10-p002_1"
*DESIGN_FLOW "PIN_CAP NONE" "NAME_SCOPE LOCAL"
*DIVIDER /
*DELIMITER :
*BUS_DELIMITER []
*T_UNIT 1 NS
*C_UNIT 1 PF
*R_UNIT 1 OHM
*L_UNIT 1 HENRY

// MMMC spef file for corner 'rc_cworst'

*NAME_MAP

*1 data[7]
*2 data[6]
*3 data[5]
*4 data[4]
*5 data[3]
*6 data[2]
*7 data[1]
*8 data[0]
*9 rdclk
*10 rdreq
*11 wrclk
*12 wrreq
*13 aclr
*14 q[7]
*15 q[6]
*16 q[5]
*17 q[4]
*18 q[3]
*19 q[2]
*20 q[1]
*21 q[0]
*22 rd_empty
*23 rd_full
*24 wr_empty
*25 wr_full
*26 wrusedw[2]
*27 wrusedw[1]
*28 wrusedw[0]
*29 rdusedw[2]
*30 rdusedw[1]
*31 rdusedw[0]
*32 sync_g_rdaddr[2]
*33 sync_g_rdaddr[1]
*34 sync_g_rdaddr[0]
*35 g_rdaddr[1]
*36 g_rdaddr[0]
*37 wraddr[2]
*38 wraddr[1]
*39 wraddr[0]
*40 g_wraddr[1]
*41 g_wraddr[0]
*42 rdaddr[2]
*43 rdaddr[1]
*44 rdaddr[0]
*45 mem\[0\][7]
*46 mem\[0\][6]
*47 mem\[0\][5]
*48 mem\[0\][4]
*49 mem\[0\][3]
*50 mem\[0\][2]
*51 mem\[0\][1]
*52 mem\[0\][0]
*53 mem\[1\][7]
*54 mem\[1\][6]
*55 mem\[1\][5]
*56 mem\[1\][4]
*57 mem\[1\][3]
*58 mem\[1\][2]
*59 mem\[1\][1]
*60 mem\[1\][0]
*61 mem\[7\][7]
*62 mem\[7\][6]
*63 mem\[7\][5]
*64 mem\[7\][4]
*65 mem\[7\][3]
*66 mem\[7\][2]
*67 mem\[7\][1]
*68 mem\[7\][0]
*69 mem\[4\][7]
*70 mem\[4\][6]
*71 mem\[4\][5]
*72 mem\[4\][4]
*73 mem\[4\][3]
*74 mem\[4\][2]
*75 mem\[4\][1]
*76 mem\[4\][0]
*77 mem\[3\][7]
*78 mem\[3\][6]
*79 mem\[3\][5]
*80 mem\[3\][4]
*81 mem\[3\][3]
*82 mem\[3\][2]
*83 mem\[3\][1]
*84 mem\[3\][0]
*85 mem\[5\][7]
*86 mem\[5\][6]
*87 mem\[5\][5]
*88 mem\[5\][4]
*89 mem\[5\][3]
*90 mem\[5\][2]
*91 mem\[5\][1]
*92 mem\[5\][0]
*93 mem\[2\][7]
*94 mem\[2\][6]
*95 mem\[2\][5]
*96 mem\[2\][4]
*97 mem\[2\][3]
*98 mem\[2\][2]
*99 mem\[2\][1]
*100 mem\[2\][0]
*101 mem\[6\][7]
*102 mem\[6\][6]
*103 mem\[6\][5]
*104 mem\[6\][4]
*105 mem\[6\][3]
*106 mem\[6\][2]
*107 mem\[6\][1]
*108 mem\[6\][0]
*109 sync_g_wraddr[2]
*110 sync_g_wraddr[1]
*111 sync_g_wraddr[0]
*112 n_0
*113 n_1
*114 n_2
*115 n_3
*116 n_4
*117 n_5
*118 n_6
*119 n_7
*120 n_8
*121 n_9
*122 n_10
*123 n_12
*124 n_13
*125 n_14
*126 n_15
*127 n_16
*128 n_18
*129 n_19
*130 n_20
*131 n_21
*132 n_22
*133 n_23
*134 n_24
*135 n_25
*136 n_26
*137 n_27
*138 n_28
*139 n_29
*140 n_30
*141 n_31
*142 n_32
*143 n_33
*144 n_34
*145 n_35
*146 n_36
*147 n_37
*148 n_38
*149 n_39
*150 n_40
*151 n_41
*152 n_42
*153 n_43
*154 n_44
*155 n_45
*156 n_46
*157 n_47
*158 n_49
*159 n_50
*160 n_51
*161 n_52
*162 n_53
*163 n_54
*164 n_55
*165 n_56
*166 n_57
*167 n_58
*168 n_59
*169 n_60
*170 n_61
*171 n_62
*172 n_63
*173 n_64
*174 n_65
*175 n_66
*176 n_67
*177 n_68
*178 n_69
*179 n_70
*180 n_71
*181 n_72
*182 n_73
*183 n_74
*184 n_75
*185 n_76
*186 n_77
*187 n_78
*188 n_79
*189 n_80
*190 n_81
*191 n_82
*192 n_83
*193 n_84
*194 n_85
*195 n_86
*196 n_87
*197 n_88
*198 n_89
*199 n_90
*200 n_91
*201 n_92
*202 n_93
*203 n_94
*204 n_95
*205 n_96
*206 n_97
*207 n_98
*208 n_99
*209 n_100
*210 n_101
*211 n_102
*212 n_103
*213 n_104
*214 n_105
*215 n_106
*216 n_107
*217 n_108
*218 n_109
*219 n_110
*220 n_111
*221 n_112
*222 n_113
*223 n_114
*224 n_115
*225 n_116
*226 n_117
*227 n_119
*228 n_120
*229 n_121
*230 n_123
*231 n_125
*232 n_126
*233 n_127
*234 n_129
*235 n_130
*236 n_131
*237 n_132
*238 n_134
*239 n_135
*240 n_136
*241 n_137
*242 n_138
*243 n_140
*244 n_141
*245 n_142
*246 n_144
*247 n_145
*248 n_146
*249 n_147
*250 n_148
*251 n_149
*252 n_150
*253 n_152
*254 n_153
*255 n_155
*256 n_156
*257 n_157
*258 n_158
*259 n_159
*260 n_160
*261 n_161
*262 n_162
*263 n_163
*264 n_164
*265 n_165
*266 n_166
*267 n_167
*268 n_168
*269 n_169
*270 n_170
*271 n_171
*272 n_172
*273 n_173
*274 n_174
*275 n_175
*276 n_176
*277 n_177
*278 n_178
*279 n_179
*280 n_180
*281 n_181
*282 n_182
*283 n_183
*284 n_184
*285 n_186
*286 n_187
*287 n_189
*288 n_190
*289 n_191
*290 n_192
*291 n_193
*292 n_194
*293 n_198
*294 n_199
*295 n_209
*296 n_210
*297 n_211
*298 n_212
*299 wrusedw_reg\[2\]
*300 rdusedw_reg\[2\]
*301 g3547__8780
*302 g3548__4296
*303 wrusedw_reg\[1\]
*304 g3545__3772
*305 g3546__1474
*306 g3553
*307 g3551
*308 rdusedw_reg\[1\]
*309 g3560
*310 g3559
*311 g3562__2683
*312 g3561__6877
*313 wrusedw_reg\[0\]
*314 g3568__2391
*315 rdusedw_reg\[0\]
*316 g3564__7675
*317 g3567__7118
*318 g3570
*319 g3563__8757
*320 g3569
*321 g3581__1786
*322 g3580__5953
*323 g3583
*324 g3589__5703
*325 g3582
*326 q_reg\[6\]
*327 q_reg\[0\]
*328 q_reg\[7\]
*329 q_reg\[4\]
*330 g3588__7114
*331 q_reg\[2\]
*332 q_reg\[3\]
*333 q_reg\[5\]
*334 q_reg\[1\]
*335 g_rdaddr_reg\[1\]
*336 g3615__5266
*337 g_wraddr_reg\[1\]
*338 g3613__2250
*339 g3590__6083
*340 g3592__2703
*341 g3591__5795
*342 g3614__7344
*343 g3616__1840
*344 g3593__5019
*345 g3594__1857
*346 g3595__9906
*347 g3584__8780
*348 g3585__4296
*349 g3586__3772
*350 mem_reg\[0\]\[7\]
*351 mem_reg\[1\]\[4\]
*352 mem_reg\[7\]\[2\]
*353 mem_reg\[0\]\[1\]
*354 mem_reg\[4\]\[4\]
*355 mem_reg\[4\]\[1\]
*356 mem_reg\[4\]\[2\]
*357 mem_reg\[4\]\[3\]
*358 mem_reg\[0\]\[0\]
*359 mem_reg\[4\]\[5\]
*360 mem_reg\[4\]\[6\]
*361 mem_reg\[3\]\[6\]
*362 mem_reg\[0\]\[3\]
*363 mem_reg\[0\]\[4\]
*364 mem_reg\[0\]\[6\]
*365 mem_reg\[0\]\[2\]
*366 mem_reg\[5\]\[7\]
*367 mem_reg\[2\]\[7\]
*368 mem_reg\[7\]\[7\]
*369 mem_reg\[1\]\[5\]
*370 mem_reg\[1\]\[6\]
*371 mem_reg\[2\]\[0\]
*372 mem_reg\[2\]\[1\]
*373 mem_reg\[2\]\[2\]
*374 mem_reg\[2\]\[4\]
*375 mem_reg\[2\]\[5\]
*376 mem_reg\[2\]\[6\]
*377 mem_reg\[3\]\[0\]
*378 mem_reg\[3\]\[1\]
*379 mem_reg\[3\]\[2\]
*380 mem_reg\[3\]\[4\]
*381 mem_reg\[3\]\[5\]
*382 g3607__1474
*383 mem_reg\[5\]\[1\]
*384 mem_reg\[5\]\[2\]
*385 mem_reg\[5\]\[4\]
*386 mem_reg\[5\]\[5\]
*387 mem_reg\[5\]\[6\]
*388 mem_reg\[6\]\[0\]
*389 mem_reg\[6\]\[1\]
*390 mem_reg\[6\]\[2\]
*391 mem_reg\[6\]\[4\]
*392 mem_reg\[1\]\[0\]
*393 mem_reg\[6\]\[5\]
*394 mem_reg\[7\]\[0\]
*395 mem_reg\[1\]\[2\]
*396 mem_reg\[7\]\[1\]
*397 mem_reg\[1\]\[3\]
*398 mem_reg\[5\]\[0\]
*399 mem_reg\[7\]\[4\]
*400 mem_reg\[7\]\[5\]
*401 mem_reg\[7\]\[6\]
*402 mem_reg\[1\]\[1\]
*403 mem_reg\[2\]\[3\]
*404 mem_reg\[6\]\[7\]
*405 mem_reg\[6\]\[6\]
*406 mem_reg\[6\]\[3\]
*407 mem_reg\[4\]\[0\]
*408 mem_reg\[3\]\[7\]
*409 mem_reg\[0\]\[5\]
*410 mem_reg\[5\]\[3\]
*411 mem_reg\[4\]\[7\]
*412 mem_reg\[3\]\[3\]
*413 mem_reg\[7\]\[3\]
*414 mem_reg\[1\]\[7\]
*415 g3746__4547
*416 g_wraddr_reg\[2\]
*417 g3712__9682
*418 g3677__2683
*419 g3678__1309
*420 g3679__6877
*421 g3680__2900
*422 g3714__2391
*423 g3693__7675
*424 g3694__7118
*425 g3695__8757
*426 g3696__1786
*427 g3697__5953
*428 g3710__5703
*429 g3698__7114
*430 g3699__5266
*431 g3700__2250
*432 g3701__6083
*433 g3702__2703
*434 g3703__5795
*435 g3704__7344
*436 g3705__1840
*437 g3706__5019
*438 g3707__1857
*439 g3708__9906
*440 g3709__8780
*441 g3713__4296
*442 g3711__3772
*443 g3715__1474
*444 g3717__4547
*445 g3718__9682
*446 g3722__2683
*447 g3723__1309
*448 g3724__6877
*449 g3725__2900
*450 g3726__2391
*451 g3727__7675
*452 g3655__7118
*453 g3728__8757
*454 g3729__1786
*455 g3741__5953
*456 g3730__5703
*457 g3731__7114
*458 g3657__5266
*459 g3732__2250
*460 g3658__6083
*461 g3733__2703
*462 g3734__5795
*463 g3659__7344
*464 g3735__1840
*465 g3736__5019
*466 g3660__1857
*467 g3737__9906
*468 g3738__8780
*469 g3716__4296
*470 g3661__3772
*471 g3739__1474
*472 g3662__4547
*473 g3740__9682
*474 g3656__2683
*475 g3663__1309
*476 g3742__6877
*477 g3743__2900
*478 g3664__2391
*479 g3744__7675
*480 g3665__7118
*481 g3676__8757
*482 g3666__1786
*483 g3748__5953
*484 g3667__5703
*485 g3668__7114
*486 g3669__5266
*487 g3670__2250
*488 g3671__6083
*489 g3672__2703
*490 g3673__5795
*491 g3674__7344
*492 g3675__1840
*493 g3747__5019
*494 g3751__1857
*495 g3774__9906
*496 g3775__8780
*497 g3776__4296
*498 g3789__3772
*499 g3721__1474
*500 g3745__4547
*501 g3750__9682
*502 g3772__2683
*503 g3752__1309
*504 g3756__6877
*505 g3757__2900
*506 g3759__2391
*507 g3760__7675
*508 g3764__7118
*509 g3765__8757
*510 g3766__1786
*511 g3767__5953
*512 g3769__5703
*513 g3770__7114
*514 g3773__5266
*515 g3777__2250
*516 g3786__6083
*517 g3788__2703
*518 g3753__5795
*519 g3754__7344
*520 g3755__1840
*521 g3758__5019
*522 g3761__1857
*523 g3768__9906
*524 g3771__8780
*525 g3749__4296
*526 g3792__1474
*527 g3785__4547
*528 g3782__9682
*529 g3783__2683
*530 g3793__1309
*531 g3794__6877
*532 g3784__2900
*533 g3795
*534 g_wraddr_reg\[0\]
*535 g_rdaddr_reg\[0\]
*536 rdaddr_reg\[0\]
*537 wraddr_reg\[0\]
*538 g3762__7675
*539 g3763__7118
*540 g3791__8757
*541 g3796__1786
*542 g3797__5953
*543 g3809__5703
*544 g3808__7114
*545 g3812__5266
*546 g3803__2250
*547 g3800__6083
*548 g3799__2703
*549 g3798__5795
*550 g3801__7344
*551 g3802__1840
*552 g3804__5019
*553 g3805__1857
*554 g3806__9906
*555 g3807__8780
*556 g3811__4296
*557 g3810__3772
*558 sync_g_wraddr_reg\[1\]
*559 sync_g_rdaddr_reg\[1\]
*560 g3821__1474
*561 sync_g_rdaddr_reg\[2\]
*562 sync_g_rdaddr_reg\[0\]
*563 sync_g_wraddr_reg\[0\]
*564 sync_g_wraddr_reg\[2\]
*565 g3822__4547
*566 g3824__9682
*567 g3823__2683
*568 g3820__1309
*569 g3819__6877
*570 g3825__2900
*571 g2
*572 g3
*573 g3934
*574 g3935
*575 g_rdaddr_reg\[2\]
*576 rdaddr_reg\[1\]
*577 wraddr_reg\[1\]


*PORTS

*1 I *C 0 652
*2 I *C 0 694
*3 I *C 0 647
*4 I *C 0 649
*5 I *C 0 647
*6 I *C 0 692
*7 I *C 0 694
*8 I *C 0 696
*9 I *C 0 651
*10 I *C 0 642
*11 I *C 0 668
*12 I *C 0 665
*13 I *C 0 653
*14 O *C 0 658
*15 O *C 0 685
*16 O *C 0 652
*17 O *C 0 649
*18 O *C 0 658
*19 O *C 0 679
*20 O *C 0 696
*21 O *C 0 688
*22 O *C 0 616
*23 O *C 0 616
*24 O *C 0 625
*25 O *C 0 625
*26 O *C 0 620
*27 O *C 0 617
*28 O *C 0 656
*29 O *C 0 618
*30 O *C 0 618
*31 O *C 0 617


*D_NET *1 0.0537173

*CONN
*I *489:IN1 I *C 293 657 *L 0.00409 *D MU2JIHDX0
*I *424:IN1 I *C 293 652 *L 0.00409 *D MU2JIHDX0
*I *419:IN1 I *C 290 666 *L 0.00409 *D MU2JIHDX0
*P *1 I *C 0 652 *L 0.1
*I *426:IN0 I *C 275 671 *L 0.00353 *D MU2JIHDX0
*I *451:IN1 I *C 276 652 *L 0.00409 *D MU2JIHDX0
*I *465:IN1 I *C 276 640 *L 0.00409 *D MU2JIHDX0
*I *434:IN0 I *C 279 635 *L 0.00353 *D MU2JIHDX0
*I *417:IN1 I *C 281 625 *L 0.00409 *D MU2JIHDX0

*CAP
1 *1:1 2.18758e-05
2 *1:2 3.67514e-05
3 *1:3 1.48756e-05
4 *1:4 4.97905e-05
5 *1:5 0.000248952
6 *1:6 0.000455892
7 *1:7 0.000199162
8 *1:8 0.000477768
9 *1:9 0.00078403
10 *1:10 2.18758e-05
11 *1:11 0.000798906
12 *1:13 3.67514e-05
13 *1:14 0.00134434
14 *1:15 2.18758e-05
15 *1:16 0.00139413
16 *1:18 0.00127405
17 *1:19 4.97905e-05
18 *1:20 0.00127405
19 *1:21 0.000392015
20 *1:22 0.0194403
21 *1:23 0.000392015
22 *1:24 9.9581e-05
23 *1 0.0193407
24 *1:27 0.00109729
25 *1:28 5.60022e-05
26 *1:29 0.00149193
27 *1:30 2.18758e-05
28 *1:31 2.18758e-05
29 *1:32 0.000406891
30 *1:35 0.000248952
31 *1:36 0.000398324
32 *1:37 0.000149371
33 *1:39 0.000810461
34 *1:41 0.000827656
35 *1:42 1.71951e-05

*RES
1 *1:42 *417:IN1 7.47765
2 *1:41 *1:42 0.136653
3 *1:39 *1:41 5.29667
4 *1:38 *434:IN0 7.47765
5 *1:37 *1:39 7.47765
6 *1:36 *1:38 7.47765
7 *1:36 *1:37 0.918308
8 *1:35 *1:36 1.53051
9 *1:32 *1:35 7.47765
10 *1:31 *465:IN1 7.47765
11 *1:30 *451:IN1 7.47765
12 *1:29 *1:32 2.54175
13 *1:29 *1:31 0.136653
14 *1:28 *1:30 0.136653
15 *1:27 *1:29 6.64134
16 *1:27 *1:28 0.213179
17 *1:24 *1:27 7.47765
18 *1:23 *426:IN0 7.47765
19 *1:22 *1 150.373
20 *1:22 *1:24 0.612205
21 *1:21 *1:23 2.44882
22 *1:20 *1:22 7.47765
23 *1:19 *1:21 7.47765
24 *1:18 *1:20 7.95867
25 *1:16 *1:19 0.306103
26 *1:16 *1:18 7.47765
27 *1:15 *419:IN1 7.47765
28 *1:14 *1:16 8.26477
29 *1:13 *1:15 0.136653
30 *1:11 *1:14 7.47765
31 *1:11 *1:13 0.092924
32 *1:10 *424:IN1 7.47765
33 *1:9 *1:11 4.89764
34 *1:8 *1:10 0.136653
35 *1:7 *1:9 7.47765
36 *1:6 *1:8 2.84785
37 *1:5 *1:7 1.22441
38 *1:5 *1:6 7.47765
39 *1:4 *1:5 0.306103
40 *1:3 *1:4 7.47765
41 *1:2 *1:3 0.092924
42 *1:1 *1:2 0.136653
43 *489:IN1 *1:1 7.47765
*END

*D_NET *2 0.0478738

*CONN
*I *450:IN1 I *C 266 697 *L 0.00409 *D MU2JIHDX0
*I *425:IN0 I *C 266 707 *L 0.00353 *D MU2JIHDX0
*I *464:IN1 I *C 263 688 *L 0.00409 *D MU2JIHDX0
*I *477:IN1 I *C 262 679 *L 0.00409 *D MU2JIHDX0
*I *488:IN1 I *C 244 702 *L 0.00409 *D MU2JIHDX0
*I *418:IN1 I *C 243 711 *L 0.00409 *D MU2JIHDX0
*I *436:IN1 I *C 238 688 *L 0.00409 *D MU2JIHDX0
*I *433:IN0 I *C 236 671 *L 0.00353 *D MU2JIHDX0
*P *2 I *C 0 694 *L 0.1

*CAP
1 *2:1 2.06654e-05
2 *2:2 3.47179e-05
3 *2:3 1.40525e-05
4 *2:4 4.79507e-05
5 *2:5 4.79507e-05
6 *2:6 0.00152759
7 *2:7 0.00078694
8 *2:8 0.000740649
9 *2:10 0.000239754
10 *2:11 0.000287704
11 *2:12 1.40525e-05
12 *2:13 4.79507e-05
13 *2:14 3.47179e-05
14 *2:15 0.000939864
15 *2:16 2.06654e-05
16 *2:17 0.000185162
17 *2:18 0.000775367
18 *2:20 0.00158237
19 *2:21 2.06654e-05
20 *2:22 0.00158237
21 *2:24 0.00101839
22 *2:25 0.00171275
23 *2:26 4.62906e-05
24 *2:27 0.000740649
25 *2:28 4.79507e-05
26 *2:29 0.000479507
27 *2:30 4.79507e-05
28 *2:31 4.79507e-05
29 *2:32 0.000479507
30 *2:33 4.79507e-05
31 *2:34 1.40525e-05
32 *2:35 0.000138872
33 *2:36 1.40525e-05
34 *2:37 3.47179e-05
35 *2:38 0.000152924
36 *2:39 3.47179e-05
37 *2:40 2.06654e-05
38 *2:41 0.000191803
39 *2:42 3.47179e-05
40 *2:43 2.06654e-05
41 *2:45 0.000191803
42 *2:46 2.06654e-05
43 *2:48 0.00162825
44 *2:50 0.000185162
45 *2:51 0.00144309
46 *2:52 0.0147333
47 *2:54 0.0147333
48 *2:55 0.00025287
49 *2:56 0.00025287
50 *2:57 7.76602e-05
51 *2 7.76602e-05

*RES
1 *2:57 *2 0.688731
2 *2:56 *2:57 7.47765
3 *2:55 *2:56 2.14272
4 *2:54 *2:55 7.47765
5 *2:52 *2:54 128.257
6 *2:51 *433:IN0 7.47765
7 *2:50 *2:52 7.47765
8 *2:48 *2:51 9.48918
9 *2:48 *2:50 1.22441
10 *2:46 *436:IN1 7.47765
11 *2:45 *2:48 7.47765
12 *2:43 *418:IN1 7.47765
13 *2:42 *2:46 0.136653
14 *2:41 *2:45 1.22441
15 *2:40 *488:IN1 7.47765
16 *2:39 *2:43 0.136653
17 *2:38 *2:42 0.092924
18 *2:38 *2:41 7.47765
19 *2:37 *2:40 0.136653
20 *2:36 *2:39 0.092924
21 *2:35 *2:38 0.918308
22 *2:34 *2:37 0.092924
23 *2:33 *2:36 7.47765
24 *2:32 *2:35 7.47765
25 *2:31 *2:34 7.47765
26 *2:30 *2:33 0.306103
27 *2:29 *2:32 3.06103
28 *2:28 *2:31 0.306103
29 *2:27 *2:30 7.47765
30 *2:26 *2:29 7.47765
31 *2:25 *2:28 7.47765
32 *2:25 *2:27 4.89764
33 *2:24 *2:26 0.306103
34 *2:24 *2:25 6.42816
35 *2:22 *2:24 7.47765
36 *2:21 *477:IN1 7.47765
37 *2:20 *2:22 10.1014
38 *2:18 *2:21 0.136653
39 *2:17 *2:20 7.47765
40 *2:16 *464:IN1 7.47765
41 *2:15 *2:18 4.99057
42 *2:15 *2:17 1.22441
43 *2:14 *2:16 0.136653
44 *2:13 *2:15 7.47765
45 *2:12 *2:14 0.092924
46 *2:11 *2:13 0.306103
47 *2:11 *2:12 7.47765
48 *2:10 *2:11 1.53051
49 *2:8 *2:10 7.47765
50 *2:7 *425:IN0 7.47765
51 *2:6 *2:8 4.89764
52 *2:6 *2:7 5.20375
53 *2:5 *2:6 7.47765
54 *2:4 *2:5 0.306103
55 *2:3 *2:4 7.47765
56 *2:2 *2:3 0.092924
57 *2:1 *2:2 0.136653
58 *450:IN1 *2:1 7.47765
*END

*D_NET *3 0.0477543

*CONN
*I *461:IN1 I *C 255 631 *L 0.00409 *D MU2JIHDX0
*I *476:IN1 I *C 256 625 *L 0.00409 *D MU2JIHDX0
*I *444:IN1 I *C 237 634 *L 0.00409 *D MU2JIHDX0
*I *432:IN0 I *C 234 626 *L 0.00353 *D MU2JIHDX0
*P *3 I *C 0 647 *L 0.1
*I *449:IN1 I *C 236 649 *L 0.00409 *D MU2JIHDX0
*I *442:IN0 I *C 252 666 *L 0.00353 *D MU2JIHDX0
*I *486:IN1 I *C 235 657 *L 0.00409 *D MU2JIHDX0
*I *481:IN1 I *C 258 666 *L 0.00409 *D MU2JIHDX0

*CAP
1 *3:1 2.22569e-05
2 *3:2 3.73917e-05
3 *3:3 1.51347e-05
4 *3:4 4.94713e-05
5 *3:5 4.94713e-05
6 *3:6 0.000408619
7 *3:7 0.000408619
8 *3:8 0.00129811
9 *3:9 3.93367e-05
10 *3:10 0.00125877
11 *3:11 1.14114e-05
12 *3:12 3.75904e-05
13 *3:13 2.81928e-05
14 *3:14 0.000742473
15 *3:15 1.67814e-05
16 *3:16 0.00188895
17 *3:17 0.00023602
18 *3:19 0.00116181
19 *3:20 2.22569e-05
20 *3:21 0.00023602
21 *3:22 0.000148414
22 *3:25 0.0160225
23 *3:27 0.000114846
24 *3 0.0158741
25 *3:29 0.000919657
26 *3:30 0.00158024
27 *3:31 2.22569e-05
28 *3:32 0.000797689
29 *3:33 9.89425e-05
30 *3:35 0.00143467
31 *3:36 9.89425e-05
32 *3:37 0.00192938
33 *3:38 1.51347e-05
34 *3:39 0.000494712
35 *3:40 4.98555e-05
36 *3:41 3.73917e-05
37 *3:42 1.51347e-05
38 *3:43 4.98555e-05
39 *3:44 2.22569e-05
40 *3:45 3.73917e-05
41 *3:48 2.22569e-05

*RES
1 *3:48 *481:IN1 7.47765
2 *3:45 *3:48 0.136653
3 *3:44 *486:IN1 7.47765
4 *3:43 *442:IN0 7.47765
5 *3:42 *3:45 0.092924
6 *3:41 *3:44 0.136653
7 *3:40 *3:43 0.306103
8 *3:39 *3:42 7.47765
9 *3:38 *3:41 0.092924
10 *3:37 *3:40 7.47765
11 *3:37 *3:39 3.06103
12 *3:36 *3:38 7.47765
13 *3:35 *3:37 8.87698
14 *3:33 *3:36 0.612205
15 *3:32 *3:35 7.47765
16 *3:31 *449:IN1 7.47765
17 *3:30 *3:33 7.47765
18 *3:30 *3:32 4.89764
19 *3:29 *3:31 0.136653
20 *3:29 *3:30 4.80472
21 *3:27 *3:29 0.70513
22 *3:25 *3 128.946
23 *3:25 *3:27 7.47765
24 *3:24 *432:IN0 7.47765
25 *3:22 *3:25 0.918308
26 *3:21 *3:24 7.47765
27 *3:20 *444:IN1 7.47765
28 *3:19 *3:22 7.47765
29 *3:17 *3:21 1.83662
30 *3:16 *3:20 0.136653
31 *3:16 *3:19 7.13329
32 *3:15 *476:IN1 7.47765
33 *3:14 *3:17 7.47765
34 *3:14 *3:16 4.49862
35 *3:13 *3:15 0.136653
36 *3:12 *3:14 0.306103
37 *3:11 *3:13 0.092924
38 *3:10 *3:12 7.47765
39 *3:9 *3:11 7.47765
40 *3:8 *3:10 9.79529
41 *3:8 *3:9 0.306103
42 *3:7 *3:8 7.47765
43 *3:6 *3:7 2.75492
44 *3:5 *3:6 7.47765
45 *3:4 *3:5 0.306103
46 *3:3 *3:4 7.47765
47 *3:2 *3:3 0.092924
48 *3:1 *3:2 0.136653
49 *461:IN1 *3:1 7.47765
*END

*D_NET *4 0.0459798

*CONN
*I *455:IN1 I *C 248 625 *L 0.00409 *D MU2JIHDX0
*I *469:IN1 I *C 247 634 *L 0.00409 *D MU2JIHDX0
*I *435:IN0 I *C 243 626 *L 0.00353 *D MU2JIHDX0
*I *459:IN1 I *C 254 649 *L 0.00409 *D MU2JIHDX0
*P *4 I *C 0 649 *L 0.1
*I *492:IN1 I *C 245 661 *L 0.00409 *D MU2JIHDX0
*I *448:IN1 I *C 247 652 *L 0.00409 *D MU2JIHDX0
*I *428:IN0 I *C 245 666 *L 0.00353 *D MU2JIHDX0
*I *452:IN1 I *C 234 666 *L 0.00409 *D MU2JIHDX0

*CAP
1 *4:1 1.67814e-05
2 *4:2 0.000103374
3 *4:3 8.65922e-05
4 *4:4 0.00011801
5 *4:5 0.00011801
6 *4:6 0.000704883
7 *4:7 0.00190122
8 *4:8 3.75904e-05
9 *4:9 0.00121167
10 *4:10 2.22569e-05
11 *4:11 0.00023602
12 *4:12 0.000742069
13 *4:14 0.00023602
14 *4:15 0.000643126
15 *4:16 9.89425e-05
16 *4:18 6.49903e-05
17 *4:19 9.97111e-05
18 *4:21 8.72472e-05
19 *4:22 0.000398844
20 *4:23 2.22569e-05
21 *4:24 0.00108169
22 *4:25 0.0167151
23 *4:27 0.0013185
24 *4:28 0.000148414
25 *4 0.0167151
26 *4:30 0.00051369
27 *4:31 2.22569e-05
28 *4:32 0.000148414
29 *4:33 4.94713e-05
30 *4:35 1.51347e-05
31 *4:36 0.000989425
32 *4:37 3.73917e-05
33 *4:38 9.97111e-05
34 *4:39 0.000939954
35 *4:40 2.22569e-05
36 *4:41 9.97111e-05
37 *4:42 3.47208e-05
38 *4:45 5.69778e-05
39 *4:46 2.22569e-05

*RES
1 *4:46 *452:IN1 7.47765
2 *4:45 *4:46 0.136653
3 *4:42 *4:45 0.213179
4 *4:41 *428:IN0 7.47765
5 *4:40 *448:IN1 7.47765
6 *4:39 *4:42 7.47765
7 *4:38 *4:41 0.612205
8 *4:37 *4:40 0.136653
9 *4:36 *4:39 5.81595
10 *4:36 *4:38 7.47765
11 *4:35 *4:37 0.092924
12 *4:33 *4:36 0.306103
13 *4:32 *4:35 7.47765
14 *4:31 *492:IN1 7.47765
15 *4:30 *4:33 7.47765
16 *4:28 *4:32 0.918308
17 *4:27 *4:31 0.136653
18 *4:27 *4:30 3.15395
19 *4:25 *4 134.15
20 *4:24 *4:28 7.47765
21 *4:24 *4:27 4.80472
22 *4:23 *459:IN1 7.47765
23 *4:22 *4:25 7.47765
24 *4:22 *4:24 1.83662
25 *4:21 *4:23 0.136653
26 *4:19 *4:22 0.612205
27 *4:18 *4:21 0.399027
28 *4:17 *435:IN0 7.47765
29 *4:16 *4:19 7.47765
30 *4:15 *4:18 7.47765
31 *4:14 *4:17 7.47765
32 *4:12 *4:16 0.612205
33 *4:12 *4:15 3.97934
34 *4:11 *4:14 1.83662
35 *4:10 *469:IN1 7.47765
36 *4:9 *4:12 7.47765
37 *4:8 *4:11 7.47765
38 *4:7 *4:10 0.136653
39 *4:7 *4:9 7.43939
40 *4:6 *4:8 0.306103
41 *4:6 *4:7 4.19251
42 *4:5 *4:6 7.47765
43 *4:4 *4:5 0.918308
44 *4:3 *4:4 7.47765
45 *4:2 *4:3 0.70513
46 *4:1 *4:2 0.136653
47 *455:IN1 *4:1 7.47765
*END

*D_NET *5 0.049377

*CONN
*I *473:IN1 I *C 263 625 *L 0.00409 *D MU2JIHDX0
*I *457:IN1 I *C 264 631 *L 0.00409 *D MU2JIHDX0
*I *431:IN0 I *C 268 630 *L 0.00353 *D MU2JIHDX0
*I *422:IN1 I *C 271 640 *L 0.00409 *D MU2JIHDX0
*I *447:IN1 I *C 266 649 *L 0.00409 *D MU2JIHDX0
*I *484:IN1 I *C 261 657 *L 0.00409 *D MU2JIHDX0
*P *5 I *C 0 647 *L 0.1
*I *491:IN1 I *C 262 666 *L 0.00409 *D MU2JIHDX0
*I *440:IN0 I *C 271 666 *L 0.00353 *D MU2JIHDX0

*CAP
1 *5:1 1.67814e-05
2 *5:2 2.81928e-05
3 *5:3 1.14114e-05
4 *5:4 3.93367e-05
5 *5:5 3.93367e-05
6 *5:6 0.000358764
7 *5:7 0.000423754
8 *5:8 0.00039577
9 *5:9 8.72472e-05
10 *5:10 0.000445241
11 *5:11 2.22569e-05
12 *5:12 4.94713e-05
13 *5:15 0.000847544
14 *5:17 0.000847544
15 *5:18 0.000298184
16 *5:19 0.000248713
17 *5:20 4.94713e-05
18 *5:21 1.48756e-05
19 *5:22 0.000797689
20 *5:23 1.48756e-05
21 *5:24 0.000847544
22 *5:26 4.98555e-05
23 *5:27 0.000148414
24 *5:28 2.18758e-05
25 *5:29 0.000643126
26 *5:30 0.000148414
27 *5:31 2.18758e-05
28 *5:32 0.000643126
29 *5:33 1.51347e-05
30 *5:35 0.000697977
31 *5:36 3.73917e-05
32 *5:37 0.000648122
33 *5:38 4.98555e-05
34 *5:39 2.22569e-05
35 *5:40 0.000148414
36 *5:41 0.0179676
37 *5:43 0.000148414
38 *5:44 0.000114846
39 *5:45 0.0179676
40 *5:46 0.000847544
41 *5:47 0.000137103
42 *5:48 0.000108718
43 *5:49 0.000912534
44 *5:50 2.22569e-05
45 *5:51 0.000108718
46 *5:52 8.72472e-05
47 *5:53 0.000792897
48 *5:55 8.3204e-05
49 *5:56 2.22569e-05
50 *5:57 0.000792897
51 *5 8.3204e-05

*RES
1 *5:60 *440:IN0 7.47765
2 *5:57 *5:60 7.47765
3 *5:56 *491:IN1 7.47765
4 *5:55 *5 0.688731
5 *5:53 *5:57 4.89764
6 *5:52 *5:56 0.136653
7 *5:51 *5:55 3.62336
8 *5:50 *484:IN1 7.47765
9 *5:49 *5:53 7.47765
10 *5:49 *5:52 0.399027
11 *5:48 *5:51 0.918308
12 *5:47 *5:50 0.136653
13 *5:46 *5:49 5.20375
14 *5:45 *5:48 3.62336
15 *5:44 *5:47 0.70513
16 *5:43 *5:46 7.47765
17 *5:41 *5:45 141.726
18 *5:40 *5:44 7.47765
19 *5:40 *5:43 0.918308
20 *5:39 *447:IN1 7.47765
21 *5:38 *5:41 7.47765
22 *5:37 *5:40 7.47765
23 *5:36 *5:39 0.136653
24 *5:35 *5:38 0.306103
25 *5:35 *5:37 3.97934
26 *5:33 *5:36 0.092924
27 *5:32 *5:35 7.47765
28 *5:31 *422:IN1 7.47765
29 *5:30 *5:33 7.47765
30 *5:29 *5:32 3.97934
31 *5:28 *5:31 0.136653
32 *5:27 *5:30 0.918308
33 *5:26 *5:29 7.47765
34 *5:25 *5:28 7.47765
35 *5:24 *5:27 7.47765
36 *5:24 *5:26 0.306103
37 *5:23 *5:25 7.47765
38 *5:22 *5:24 4.89764
39 *5:21 *5:23 0.092924
40 *5:20 *5:22 7.47765
41 *5:19 *5:21 7.47765
42 *5:18 *5:20 0.306103
43 *5:18 *5:19 1.53051
44 *5:17 *5:18 7.47765
45 *5:15 *5:17 5.20375
46 *5:13 *431:IN0 7.47765
47 *5:12 *5:15 7.47765
48 *5:11 *457:IN1 7.47765
49 *5:10 *5:13 7.47765
50 *5:10 *5:12 0.306103
51 *5:9 *5:11 0.136653
52 *5:8 *5:10 2.44882
53 *5:7 *5:9 0.399027
54 *5:7 *5:8 7.47765
55 *5:6 *5:7 2.44882
56 *5:5 *5:6 7.47765
57 *5:4 *5:5 0.306103
58 *5:3 *5:4 7.47765
59 *5:2 *5:3 0.092924
60 *5:1 *5:2 0.136653
61 *473:IN1 *5:1 7.47765
*END

*D_NET *6 0.048933

*CONN
*I *471:IN1 I *C 298 666 *L 0.00409 *D MU2JIHDX0
*I *456:IN1 I *C 298 684 *L 0.00409 *D MU2JIHDX0
*I *430:IN0 I *C 293 680 *L 0.00353 *D MU2JIHDX0
*I *439:IN0 I *C 297 693 *L 0.00353 *D MU2JIHDX0
*I *443:IN1 I *C 298 688 *L 0.00409 *D MU2JIHDX0
*I *446:IN1 I *C 291 693 *L 0.00409 *D MU2JIHDX0
*I *490:IN1 I *C 302 697 *L 0.00409 *D MU2JIHDX0
*I *482:IN1 I *C 290 702 *L 0.00409 *D MU2JIHDX0
*P *6 I *C 0 692 *L 0.1

*CAP
1 *6:1 2.18758e-05
2 *6:2 2.18758e-05
3 *6:4 0.00113903
4 *6:5 0.00113903
5 *6:6 0.000388765
6 *6:7 0.000322622
7 *6:8 0.000388765
8 *6:9 0.000638144
9 *6:10 4.41731e-05
10 *6:11 0.000649187
11 *6:12 1.97201e-05
12 *6:13 4.41731e-05
13 *6:14 0.000353385
14 *6:15 4.85956e-05
15 *6:18 0.000340169
16 *6:19 4.85956e-05
17 *6:20 0.000291574
18 *6:21 0.000583147
19 *6:22 1.34097e-05
20 *6:23 0.000353385
21 *6:25 0.000534552
22 *6:26 3.31298e-05
23 *6:27 0.000353385
24 *6:29 4.41731e-05
25 *6:30 1.97201e-05
26 *6:31 9.71912e-05
27 *6:32 5.75828e-05
28 *6:34 9.71912e-05
29 *6:35 3.31298e-05
30 *6:36 4.85956e-05
31 *6:37 1.34097e-05
32 *6:38 1.97201e-05
33 *6:39 4.85956e-05
34 *6:40 3.31298e-05
35 *6:42 0.000808526
36 *6:43 1.97201e-05
37 *6:44 0.0007399
38 *6:45 8.83462e-05
39 *6:47 1.97201e-05
40 *6:48 0.0194868
41 *6 0.0194868

*RES
1 *6:48 *6 158.638
2 *6:47 *482:IN1 7.47765
3 *6:45 *6:48 7.47765
4 *6:44 *6:47 0.136653
5 *6:43 *490:IN1 7.47765
6 *6:42 *6:45 0.612205
7 *6:42 *6:44 4.99057
8 *6:40 *6:43 0.136653
9 *6:39 *6:42 7.47765
10 *6:38 *446:IN1 7.47765
11 *6:37 *6:40 0.092924
12 *6:36 *6:39 0.306103
13 *6:35 *6:38 0.136653
14 *6:34 *6:37 7.47765
15 *6:32 *6:36 7.47765
16 *6:32 *6:35 0.092924
17 *6:31 *6:34 0.612205
18 *6:30 *443:IN1 7.47765
19 *6:29 *6:32 0.306103
20 *6:27 *6:31 7.47765
21 *6:26 *6:30 0.136653
22 *6:25 *6:29 7.47765
23 *6:24 *439:IN0 7.47765
24 *6:23 *6:27 2.44882
25 *6:22 *6:26 0.092924
26 *6:21 *6:25 3.36713
27 *6:21 *6:24 7.47765
28 *6:20 *6:23 7.47765
29 *6:19 *6:22 7.47765
30 *6:18 *6:21 0.306103
31 *6:18 *6:20 1.83662
32 *6:15 *6:19 0.306103
33 *6:14 *6:18 7.47765
34 *6:13 *430:IN0 7.47765
35 *6:12 *456:IN1 7.47765
36 *6:11 *6:15 7.47765
37 *6:11 *6:14 2.44882
38 *6:10 *6:13 0.306103
39 *6:9 *6:12 0.136653
40 *6:9 *6:11 2.0498
41 *6:8 *6:10 7.47765
42 *6:7 *6:9 2.23564
43 *6:6 *6:8 2.44882
44 *6:6 *6:7 7.47765
45 *6:5 *6:6 7.47765
46 *6:4 *6:5 7.55964
47 *6:3 *6:4 7.47765
48 *6:2 *6:3 7.47765
49 *6:1 *6:2 0.136653
50 *471:IN1 *6:1 7.47765
*END

*D_NET *7 0.0432386

*CONN
*I *487:IN1 I *C 251 711 *L 0.00409 *D MU2JIHDX0
*I *438:IN0 I *C 253 702 *L 0.00353 *D MU2JIHDX0
*I *454:IN1 I *C 253 688 *L 0.00409 *D MU2JIHDX0
*I *429:IN0 I *C 251 680 *L 0.00353 *D MU2JIHDX0
*I *462:IN1 I *C 243 688 *L 0.00409 *D MU2JIHDX0
*I *468:IN1 I *C 257 679 *L 0.00409 *D MU2JIHDX0
*P *7 I *C 0 694 *L 0.1
*I *479:IN1 I *C 233 697 *L 0.00409 *D MU2JIHDX0
*I *478:IN1 I *C 231 706 *L 0.00409 *D MU2JIHDX0

*CAP
1 *7:1 2.06654e-05
2 *7:2 3.47179e-05
3 *7:3 1.40525e-05
4 *7:4 0.000191803
5 *7:5 0.000191803
6 *7:6 0.00078694
7 *7:7 0.0019442
8 *7:9 0.00115726
9 *7:11 0.000191803
10 *7:13 3.22381e-05
11 *7:14 0.000191803
12 *7:15 5.29035e-05
13 *7:16 0.000740649
14 *7:17 2.06654e-05
15 *7:18 4.62906e-05
16 *7:19 0.000694358
17 *7:21 0.000623359
18 *7:22 0.000527458
19 *7:23 0.00148647
20 *7:24 0.000527458
21 *7:25 4.62906e-05
22 *7:26 1.40525e-05
23 *7:27 0.000863113
24 *7:28 1.40525e-05
25 *7:29 4.62906e-05
26 *7:30 3.47179e-05
27 *7:31 0.000509196
28 *7:32 3.47179e-05
29 *7:34 2.06654e-05
30 *7:35 0.000509196
31 *7:36 2.06654e-05
32 *7:38 9.59015e-05
33 *7:40 0.0146191
34 *7:41 0.000231453
35 *7 0.0145232
36 *7:43 0.000416615
37 *7:44 0.000185162
38 *7:45 9.59015e-05
39 *7:46 9.59015e-05
40 *7:47 9.59015e-05
41 *7:48 9.59015e-05
42 *7:49 1.40525e-05
43 *7:50 0.000541434
44 *7:51 3.47179e-05
45 *7:52 0.0005621
46 *7:53 2.06654e-05
47 *7:54 2.06654e-05

*RES
1 *7:54 *478:IN1 7.47765
2 *7:53 *479:IN1 7.47765
3 *7:52 *7:54 0.136653
4 *7:51 *7:53 0.136653
5 *7:50 *7:52 3.58031
6 *7:49 *7:51 0.092924
7 *7:48 *7:50 7.47765
8 *7:47 *7:49 7.47765
9 *7:46 *7:48 0.612206
10 *7:45 *7:47 0.612206
11 *7:44 *7:46 7.47765
12 *7:43 *7:45 7.47765
13 *7:43 *7:44 1.22441
14 *7:41 *7:43 1.53051
15 *7:40 *7 127.109
16 *7:40 *7:41 7.47765
17 *7:38 *7:40 0.612206
18 *7:36 *468:IN1 7.47765
19 *7:35 *7:38 7.47765
20 *7:34 *462:IN1 7.47765
21 *7:32 *7:36 0.136653
22 *7:31 *7:35 3.36713
23 *7:30 *7:34 0.136653
24 *7:29 *429:IN0 7.47765
25 *7:28 *7:32 0.092924
26 *7:27 *7:31 7.47765
27 *7:26 *7:30 0.092924
28 *7:25 *7:29 0.306103
29 *7:24 *7:28 7.47765
30 *7:23 *7:27 5.50985
31 *7:23 *7:26 7.47765
32 *7:22 *7:25 7.47765
33 *7:22 *7:24 3.36713
34 *7:21 *7:23 3.97934
35 *7:19 *7:22 7.47765
36 *7:18 *7:21 7.47765
37 *7:17 *454:IN1 7.47765
38 *7:16 *7:19 4.59154
39 *7:16 *7:18 0.306103
40 *7:15 *7:17 0.136653
41 *7:14 *7:16 7.47765
42 *7:13 *7:15 0.213179
43 *7:11 *7:14 1.22441
44 *7:11 *7:13 7.47765
45 *7:10 *438:IN0 7.47765
46 *7:9 *7:11 7.47765
47 *7:8 *7:10 7.47765
48 *7:7 *7:9 7.65257
49 *7:7 *7:8 7.47765
50 *7:6 *7:7 5.20375
51 *7:5 *7:6 7.47765
52 *7:4 *7:5 1.22441
53 *7:3 *7:4 7.47765
54 *7:2 *7:3 0.092924
55 *7:1 *7:2 0.136653
56 *487:IN1 *7:1 7.47765
*END

*D_NET *8 0.0471983

*CONN
*I *467:IN1 I *C 271 679 *L 0.00409 *D MU2JIHDX0
*I *427:IN0 I *C 279 680 *L 0.00353 *D MU2JIHDX0
*I *441:IN1 I *C 279 688 *L 0.00409 *D MU2JIHDX0
*I *453:IN1 I *C 276 688 *L 0.00409 *D MU2JIHDX0
*P *8 I *C 0 696 *L 0.1
*I *423:IN1 I *C 270 702 *L 0.00409 *D MU2JIHDX0
*I *437:IN0 I *C 273 710 *L 0.00353 *D MU2JIHDX0
*I *480:IN1 I *C 280 711 *L 0.00409 *D MU2JIHDX0
*I *475:IN1 I *C 285 706 *L 0.00409 *D MU2JIHDX0

*CAP
1 *8:1 1.97201e-05
2 *8:2 3.31298e-05
3 *8:3 1.34097e-05
4 *8:4 0.000728934
5 *8:5 0.000728934
6 *8:6 4.41731e-05
7 *8:7 0.00069336
8 *8:8 0.000682317
9 *8:10 1.34097e-05
10 *8:11 1.97201e-05
11 *8:12 0.000242978
12 *8:14 0.00043736
13 *8:15 1.34097e-05
14 *8:16 0.000194382
15 *8:17 3.31298e-05
16 *8:18 0.000618424
17 *8:19 1.97201e-05
18 *8:20 0.000618424
19 *8:22 0.000340169
20 *8:23 0.0180775
21 *8:24 0.000499314
22 *8:25 0.0177374
23 *8:26 0.000499314
24 *8:30 0.000668907
25 *8:31 0.000649187
26 *8:32 1.97201e-05
27 *8:33 0.000242978
28 *8:35 0.000874721
29 *8:36 0.0010691
30 *8:38 0.00043736
31 *8:39 5.75828e-05
32 *8:41 0.000366795
33 *8:42 7.7303e-05
34 *8:43 0.000386515
35 *8:44 1.97201e-05
36 *8:45 1.97201e-05

*RES
1 *8:45 *475:IN1 7.47765
2 *8:44 *480:IN1 7.47765
3 *8:43 *8:45 0.136653
4 *8:42 *8:44 0.136653
5 *8:41 *8:43 2.54175
6 *8:39 *8:42 0.399027
7 *8:38 *8:41 7.47765
8 *8:37 *437:IN0 7.47765
9 *8:36 *8:39 7.47765
10 *8:36 *8:38 2.75492
11 *8:35 *8:37 7.47765
12 *8:35 *8:36 3.97934
13 *8:33 *8:35 1.53051
14 *8:32 *423:IN1 7.47765
15 *8:31 *8:33 7.47765
16 *8:30 *8:32 0.136653
17 *8:30 *8:31 4.49862
18 *8:28 *8:30 7.47765
19 *8:27 *8 7.47765
20 *8:26 *8:28 7.47765
21 *8:25 *8:27 7.47765
22 *8:24 *8:26 3.46005
23 *8:23 *8:25 147.618
24 *8:23 *8:24 7.47765
25 *8:22 *8:23 2.14272
26 *8:20 *8:22 7.47765
27 *8:19 *453:IN1 7.47765
28 *8:18 *8:20 4.28544
29 *8:17 *8:19 0.136653
30 *8:16 *8:18 7.47765
31 *8:15 *8:17 0.092924
32 *8:14 *8:16 1.22441
33 *8:14 *8:15 7.47765
34 *8:12 *8:14 1.53051
35 *8:11 *441:IN1 7.47765
36 *8:10 *8:12 7.47765
37 *8:8 *8:11 0.136653
38 *8:8 *8:10 0.092924
39 *8:7 *427:IN0 7.47765
40 *8:7 *8:8 4.49862
41 *8:6 *8:7 0.306103
42 *8:5 *8:6 7.47765
43 *8:4 *8:5 4.59154
44 *8:3 *8:4 7.47765
45 *8:2 *8:3 0.092924
46 *8:1 *8:2 0.136653
47 *467:IN1 *8:1 7.47765
*END

*D_NET *9 0.0749284

*CONN
*I *563:C I *C 333 652 *L 0.00466 *D DFRRQJIHDX1
*I *558:C I *C 317 652 *L 0.00466 *D DFRRQJIHDX1
*I *535:C I *C 312 643 *L 0.00466 *D DFRRQJIHDX1
*I *564:C I *C 304 625 *L 0.00466 *D DFRRQJIHDX1